MODEL 1
REMARK VINA RESULT:      -5.6      0.000      0.000
REMARK  3 active torsions:
REMARK  status: ('A' for Active; 'I' for Inactive)
REMARK    1  A    between atoms: O_1  and  C_7 
REMARK    2  A    between atoms: O_2  and  C_10 
REMARK    3  A    between atoms: C_4  and  C_10 
ROOT
HETATM    1  C   UNK N   1      -8.611  53.855  -6.722  0.00  0.00     0.037 A 
HETATM    2  C   UNK N   1      -8.906  54.142  -5.376  0.00  0.00     0.021 A 
HETATM    3  C   UNK N   1      -9.599  54.066  -7.700  0.00  0.00     0.021 A 
HETATM    4  C   UNK N   1     -11.146  54.839  -6.001  0.00  0.00     0.065 A 
HETATM    5  C   UNK N   1     -10.167  54.631  -5.019  0.00  0.00     0.037 A 
HETATM    6  C   UNK N   1     -10.858  54.555  -7.339  0.00  0.00     0.037 A 
ENDROOT
BRANCH   1   7
HETATM    7  C   UNK N   1      -7.277  53.335  -7.113  0.00  0.00     0.176 C 
HETATM    8  O   UNK N   1      -6.280  54.031  -6.983  0.00  0.00    -0.646 OA
BRANCH   7   9
HETATM    9  O   UNK N   1      -7.158  52.086  -7.616  0.00  0.00    -0.773 OA
HETATM   10  H   UNK N   1      -7.471  51.314  -7.124  0.00  0.00     0.167 HD
ENDBRANCH   7   9
ENDBRANCH   1   7
BRANCH   4  11
HETATM   11  O   UNK N   1     -12.366  55.311  -5.669  0.00  0.00    -0.361 OA
HETATM   12  H   UNK N   1     -13.175  54.826  -5.883  0.00  0.00     0.217 HD
ENDBRANCH   4  11
TORSDOF 3
ENDMDL
MODEL 2
REMARK VINA RESULT:      -5.3      1.010      4.122
REMARK  3 active torsions:
REMARK  status: ('A' for Active; 'I' for Inactive)
REMARK    1  A    between atoms: O_1  and  C_7 
REMARK    2  A    between atoms: O_2  and  C_10 
REMARK    3  A    between atoms: C_4  and  C_10 
ROOT
HETATM    1  C   UNK N   1     -10.085  54.372  -6.123  0.00  0.00     0.037 A 
HETATM    2  C   UNK N   1      -9.334  53.515  -5.296  0.00  0.00     0.021 A 
HETATM    3  C   UNK N   1      -9.721  54.511  -7.474  0.00  0.00     0.021 A 
HETATM    4  C   UNK N   1      -7.886  52.957  -7.163  0.00  0.00     0.065 A 
HETATM    5  C   UNK N   1      -8.242  52.812  -5.814  0.00  0.00     0.037 A 
HETATM    6  C   UNK N   1      -8.628  53.807  -7.988  0.00  0.00     0.037 A 
ENDROOT
BRANCH   1   7
HETATM    7  C   UNK N   1     -11.246  55.124  -5.585  0.00  0.00     0.176 C 
HETATM    8  O   UNK N   1     -11.216  55.580  -4.450  0.00  0.00    -0.646 OA
BRANCH   7   9
HETATM    9  O   UNK N   1     -12.345  55.308  -6.348  0.00  0.00    -0.773 OA
HETATM   10  H   UNK N   1     -13.041  54.638  -6.400  0.00  0.00     0.167 HD
ENDBRANCH   7   9
ENDBRANCH   1   7
BRANCH   4  11
HETATM   11  O   UNK N   1      -6.834  52.285  -7.675  0.00  0.00    -0.361 OA
HETATM   12  H   UNK N   1      -6.952  51.504  -8.233  0.00  0.00     0.217 HD
ENDBRANCH   4  11
TORSDOF 3
ENDMDL
MODEL 3
REMARK VINA RESULT:      -5.1      2.107      3.866
REMARK  3 active torsions:
REMARK  status: ('A' for Active; 'I' for Inactive)
REMARK    1  A    between atoms: O_1  and  C_7 
REMARK    2  A    between atoms: O_2  and  C_10 
REMARK    3  A    between atoms: C_4  and  C_10 
ROOT
HETATM    1  C   UNK N   1     -10.245  53.905  -7.196  0.00  0.00     0.037 A 
HETATM    2  C   UNK N   1      -9.331  52.890  -7.536  0.00  0.00     0.021 A 
HETATM    3  C   UNK N   1     -10.341  54.320  -5.857  0.00  0.00     0.021 A 
HETATM    4  C   UNK N   1      -8.632  52.723  -5.217  0.00  0.00     0.065 A 
HETATM    5  C   UNK N   1      -8.530  52.303  -6.551  0.00  0.00     0.037 A 
HETATM    6  C   UNK N   1      -9.539  53.731  -4.875  0.00  0.00     0.037 A 
ENDROOT
BRANCH   1   7
HETATM    7  C   UNK N   1     -11.100  54.535  -8.233  0.00  0.00     0.176 C 
HETATM    8  O   UNK N   1     -11.733  55.551  -7.979  0.00  0.00    -0.646 OA
BRANCH   7   9
HETATM    9  O   UNK N   1     -11.184  53.988  -9.465  0.00  0.00    -0.773 OA
HETATM   10  H   UNK N   1     -10.705  54.365 -10.217  0.00  0.00     0.167 HD
ENDBRANCH   7   9
ENDBRANCH   1   7
BRANCH   4  11
HETATM   11  O   UNK N   1      -7.865  52.165  -4.257  0.00  0.00    -0.361 OA
HETATM   12  H   UNK N   1      -8.213  51.969  -3.376  0.00  0.00     0.217 HD
ENDBRANCH   4  11
TORSDOF 3
ENDMDL
MODEL 4
REMARK VINA RESULT:      -5.0     24.570     25.445
REMARK  3 active torsions:
REMARK  status: ('A' for Active; 'I' for Inactive)
REMARK    1  A    between atoms: O_1  and  C_7 
REMARK    2  A    between atoms: O_2  and  C_10 
REMARK    3  A    between atoms: C_4  and  C_10 
ROOT
HETATM    1  C   UNK N   1     -30.903  41.642  -7.471  0.00  0.00     0.037 A 
HETATM    2  C   UNK N   1     -30.541  41.923  -8.802  0.00  0.00     0.021 A 
HETATM    3  C   UNK N   1     -30.875  40.311  -7.020  0.00  0.00     0.021 A 
HETATM    4  C   UNK N   1     -30.134  39.563  -9.204  0.00  0.00     0.065 A 
HETATM    5  C   UNK N   1     -30.159  40.889  -9.663  0.00  0.00     0.037 A 
HETATM    6  C   UNK N   1     -30.492  39.280  -7.883  0.00  0.00     0.037 A 
ENDROOT
BRANCH   1   7
HETATM    7  C   UNK N   1     -31.311  42.731  -6.549  0.00  0.00     0.176 C 
HETATM    8  O   UNK N   1     -30.990  43.889  -6.778  0.00  0.00    -0.646 OA
BRANCH   7   9
HETATM    9  O   UNK N   1     -32.041  42.447  -5.448  0.00  0.00    -0.773 OA
HETATM   10  H   UNK N   1     -31.655  41.977  -4.695  0.00  0.00     0.167 HD
ENDBRANCH   7   9
ENDBRANCH   1   7
BRANCH   4  11
HETATM   11  O   UNK N   1     -29.767  38.557 -10.025  0.00  0.00    -0.361 OA
HETATM   12  H   UNK N   1     -29.406  37.727  -9.683  0.00  0.00     0.217 HD
ENDBRANCH   4  11
TORSDOF 3
ENDMDL
MODEL 5
REMARK VINA RESULT:      -4.9     34.022     34.606
REMARK  3 active torsions:
REMARK  status: ('A' for Active; 'I' for Inactive)
REMARK    1  A    between atoms: O_1  and  C_7 
REMARK    2  A    between atoms: O_2  and  C_10 
REMARK    3  A    between atoms: C_4  and  C_10 
ROOT
HETATM    1  C   UNK N   1     -16.963  20.393  -9.624  0.00  0.00     0.037 A 
HETATM    2  C   UNK N   1     -16.683  19.641  -8.468  0.00  0.00     0.021 A 
HETATM    3  C   UNK N   1     -17.834  21.493  -9.532  0.00  0.00     0.021 A 
HETATM    4  C   UNK N   1     -18.135  21.083  -7.161  0.00  0.00     0.065 A 
HETATM    5  C   UNK N   1     -17.267  19.985  -7.244  0.00  0.00     0.037 A 
HETATM    6  C   UNK N   1     -18.416  21.833  -8.307  0.00  0.00     0.037 A 
ENDROOT
BRANCH   1   7
HETATM    7  C   UNK N   1     -16.350  20.038 -10.928  0.00  0.00     0.176 C 
HETATM    8  O   UNK N   1     -17.036  19.980 -11.939  0.00  0.00    -0.646 OA
BRANCH   7   9
HETATM    9  O   UNK N   1     -15.026  19.778 -11.005  0.00  0.00    -0.773 OA
HETATM   10  H   UNK N   1     -14.476  19.728 -10.211  0.00  0.00     0.167 HD
ENDBRANCH   7   9
ENDBRANCH   1   7
BRANCH   4  11
HETATM   11  O   UNK N   1     -18.704  21.425  -5.986  0.00  0.00    -0.361 OA
HETATM   12  H   UNK N   1     -18.329  22.113  -5.419  0.00  0.00     0.217 HD
ENDBRANCH   4  11
TORSDOF 3
ENDMDL
MODEL 6
REMARK VINA RESULT:      -4.9     34.264     35.034
REMARK  3 active torsions:
REMARK  status: ('A' for Active; 'I' for Inactive)
REMARK    1  A    between atoms: O_1  and  C_7 
REMARK    2  A    between atoms: O_2  and  C_10 
REMARK    3  A    between atoms: C_4  and  C_10 
ROOT
HETATM    1  C   UNK N   1     -16.826  20.553  -8.916  0.00  0.00     0.037 A 
HETATM    2  C   UNK N   1     -15.862  19.639  -9.382  0.00  0.00     0.021 A 
HETATM    3  C   UNK N   1     -17.228  20.496  -7.570  0.00  0.00     0.021 A 
HETATM    4  C   UNK N   1     -15.721  18.639  -7.174  0.00  0.00     0.065 A 
HETATM    5  C   UNK N   1     -15.313  18.688  -8.515  0.00  0.00     0.037 A 
HETATM    6  C   UNK N   1     -16.678  19.544  -6.707  0.00  0.00     0.037 A 
ENDROOT
BRANCH   1   7
HETATM    7  C   UNK N   1     -17.415  21.566  -9.826  0.00  0.00     0.176 C 
HETATM    8  O   UNK N   1     -17.983  21.220 -10.852  0.00  0.00    -0.646 OA
BRANCH   7   9
HETATM    9  O   UNK N   1     -17.327  22.880  -9.523  0.00  0.00    -0.773 OA
HETATM   10  H   UNK N   1     -16.570  23.412  -9.805  0.00  0.00     0.167 HD
ENDBRANCH   7   9
ENDBRANCH   1   7
BRANCH   4  11
HETATM   11  O   UNK N   1     -15.199  17.726  -6.328  0.00  0.00    -0.361 OA
HETATM   12  H   UNK N   1     -14.423  17.921  -5.784  0.00  0.00     0.217 HD
ENDBRANCH   4  11
TORSDOF 3
ENDMDL
MODEL 7
REMARK VINA RESULT:      -4.9     34.302     34.955
REMARK  3 active torsions:
REMARK  status: ('A' for Active; 'I' for Inactive)
REMARK    1  A    between atoms: O_1  and  C_7 
REMARK    2  A    between atoms: O_2  and  C_10 
REMARK    3  A    between atoms: C_4  and  C_10 
ROOT
HETATM    1  C   UNK N   1     -17.057  19.683  -7.809  0.00  0.00     0.037 A 
HETATM    2  C   UNK N   1     -16.317  19.668  -9.006  0.00  0.00     0.021 A 
HETATM    3  C   UNK N   1     -17.900  20.775  -7.539  0.00  0.00     0.021 A 
HETATM    4  C   UNK N   1     -17.266  21.812  -9.637  0.00  0.00     0.065 A 
HETATM    5  C   UNK N   1     -16.422  20.727  -9.914  0.00  0.00     0.037 A 
HETATM    6  C   UNK N   1     -18.003  21.831  -8.449  0.00  0.00     0.037 A 
ENDROOT
BRANCH   1   7
HETATM    7  C   UNK N   1     -16.954  18.565  -6.838  0.00  0.00     0.176 C 
HETATM    8  O   UNK N   1     -15.860  18.120  -6.521  0.00  0.00    -0.646 OA
BRANCH   7   9
HETATM    9  O   UNK N   1     -18.072  18.033  -6.298  0.00  0.00    -0.773 OA
HETATM   10  H   UNK N   1     -18.738  18.589  -5.868  0.00  0.00     0.167 HD
ENDBRANCH   7   9
ENDBRANCH   1   7
BRANCH   4  11
HETATM   11  O   UNK N   1     -17.376  22.840 -10.504  0.00  0.00    -0.361 OA
HETATM   12  H   UNK N   1     -17.807  22.737 -11.364  0.00  0.00     0.217 HD
ENDBRANCH   4  11
TORSDOF 3
ENDMDL
MODEL 8
REMARK VINA RESULT:      -4.9     45.353     45.873
REMARK  3 active torsions:
REMARK  status: ('A' for Active; 'I' for Inactive)
REMARK    1  A    between atoms: O_1  and  C_7 
REMARK    2  A    between atoms: O_2  and  C_10 
REMARK    3  A    between atoms: C_4  and  C_10 
ROOT
HETATM    1  C   UNK N   1     -21.097  10.830   0.872  0.00  0.00     0.037 A 
HETATM    2  C   UNK N   1     -20.200  11.260   1.868  0.00  0.00     0.021 A 
HETATM    3  C   UNK N   1     -20.829   9.637   0.177  0.00  0.00     0.021 A 
HETATM    4  C   UNK N   1     -18.796   9.321   1.461  0.00  0.00     0.065 A 
HETATM    5  C   UNK N   1     -19.056  10.509   2.159  0.00  0.00     0.037 A 
HETATM    6  C   UNK N   1     -19.685   8.890   0.472  0.00  0.00     0.037 A 
ENDROOT
BRANCH   1   7
HETATM    7  C   UNK N   1     -22.314  11.617   0.553  0.00  0.00     0.176 C 
HETATM    8  O   UNK N   1     -23.092  11.939   1.440  0.00  0.00    -0.646 OA
BRANCH   7   9
HETATM    9  O   UNK N   1     -22.567  11.985  -0.722  0.00  0.00    -0.773 OA
HETATM   10  H   UNK N   1     -22.588  12.916  -0.983  0.00  0.00     0.167 HD
ENDBRANCH   7   9
ENDBRANCH   1   7
BRANCH   4  11
HETATM   11  O   UNK N   1     -17.697   8.588   1.734  0.00  0.00    -0.361 OA
HETATM   12  H   UNK N   1     -17.634   7.654   1.491  0.00  0.00     0.217 HD
ENDBRANCH   4  11
TORSDOF 3
ENDMDL
MODEL 9
REMARK VINA RESULT:      -4.8     34.061     34.802
REMARK  3 active torsions:
REMARK  status: ('A' for Active; 'I' for Inactive)
REMARK    1  A    between atoms: O_1  and  C_7 
REMARK    2  A    between atoms: O_2  and  C_10 
REMARK    3  A    between atoms: C_4  and  C_10 
ROOT
HETATM    1  C   UNK N   1     -17.631  20.629  -7.713  0.00  0.00     0.037 A 
HETATM    2  C   UNK N   1     -16.813  19.483  -7.700  0.00  0.00     0.021 A 
HETATM    3  C   UNK N   1     -17.604  21.477  -8.834  0.00  0.00     0.021 A 
HETATM    4  C   UNK N   1     -15.966  20.045  -9.905  0.00  0.00     0.065 A 
HETATM    5  C   UNK N   1     -15.986  19.194  -8.791  0.00  0.00     0.037 A 
HETATM    6  C   UNK N   1     -16.776  21.185  -9.922  0.00  0.00     0.037 A 
ENDROOT
BRANCH   1   7
HETATM    7  C   UNK N   1     -18.512  20.946  -6.562  0.00  0.00     0.176 C 
HETATM    8  O   UNK N   1     -18.474  20.264  -5.547  0.00  0.00    -0.646 OA
BRANCH   7   9
HETATM    9  O   UNK N   1     -19.363  21.994  -6.630  0.00  0.00    -0.773 OA
HETATM   10  H   UNK N   1     -19.198  22.738  -7.225  0.00  0.00     0.167 HD
ENDBRANCH   7   9
ENDBRANCH   1   7
BRANCH   4  11
HETATM   11  O   UNK N   1     -15.173  19.778 -10.963  0.00  0.00    -0.361 OA
HETATM   12  H   UNK N   1     -14.733  20.481 -11.461  0.00  0.00     0.217 HD
ENDBRANCH   4  11
TORSDOF 3
ENDMDL
