MODEL 1
REMARK VINA RESULT:      -7.3      0.000      0.000
REMARK  6 active torsions:
REMARK  status: ('A' for Active; 'I' for Inactive)
REMARK    1  A    between atoms: O_1  and  C_22 
REMARK    2  A    between atoms: C_6  and  C_13 
REMARK    3  A    between atoms: C_13  and  C_21 
REMARK    4  A    between atoms: C_21  and  C_24 
REMARK    5  A    between atoms: C_24  and  C_25 
REMARK    6  A    between atoms: C_25  and  C_26 
ROOT
HETATM    1  C   UNK N   1     -23.498  26.884 -15.787  0.00  0.00    -0.036 C 
HETATM    2  C   UNK N   1     -22.570  26.192 -14.765  0.00  0.00    -0.001 C 
HETATM    3  C   UNK N   1     -21.460  25.345 -15.429  0.00  0.00    -0.001 C 
HETATM    4  C   UNK N   1     -20.615  26.242 -16.366  0.00  0.00     0.003 C 
HETATM    5  C   UNK N   1     -24.476  27.573 -14.802  0.00  0.00    -0.002 C 
HETATM    6  C   UNK N   1     -22.600  27.854 -16.608  0.00  0.00     0.010 C 
HETATM    7  C   UNK N   1     -19.515  25.385 -17.112  0.00  0.00    -0.017 C 
HETATM    8  C   UNK N   1     -23.532  25.502 -13.811  0.00  0.00     0.006 C 
HETATM    9  C   UNK N   1     -21.493  27.086 -17.340  0.00  0.00     0.007 C 
HETATM   10  C   UNK N   1     -24.715  26.487 -13.711  0.00  0.00     0.006 C 
HETATM   11  C   UNK N   1     -20.545  24.736 -14.349  0.00  0.00     0.033 C 
HETATM   12  C   UNK N   1     -24.275  25.896 -16.719  0.00  0.00     0.016 C 
HETATM   13  C   UNK N   1     -18.809  24.423 -16.143  0.00  0.00    -0.072 C 
HETATM   14  C   UNK N   1     -18.443  26.375 -17.666  0.00  0.00     0.016 C 
HETATM   15  C   UNK N   1     -19.263  24.167 -14.900  0.00  0.00    -0.023 C 
HETATM   16  C   UNK N   1     -20.116  24.536 -18.267  0.00  0.00     0.020 C 
HETATM   17  C   UNK N   1     -17.533  23.752 -16.624  0.00  0.00     0.066 C 
HETATM   18  C   UNK N   1     -17.187  25.675 -18.213  0.00  0.00     0.033 C 
HETATM   19  C   UNK N   1     -16.537  24.812 -17.116  0.00  0.00     0.122 C 
ENDROOT
BRANCH   5  20
HETATM   20  C   UNK N   1     -25.801  28.215 -15.324  0.00  0.00    -0.014 C 
HETATM   21  C   UNK N   1     -25.873  29.737 -15.103  0.00  0.00     0.010 C 
BRANCH  20  22
HETATM   22  C   UNK N   1     -27.054  27.533 -14.719  0.00  0.00     0.005 C 
BRANCH  22  23
HETATM   23  C   UNK N   1     -27.719  26.487 -15.637  0.00  0.00     0.005 C 
BRANCH  23  24
HETATM   24  C   UNK N   1     -28.825  27.070 -16.549  0.00  0.00    -0.015 C 
HETATM   25  C   UNK N   1     -29.211  28.460 -16.006  0.00  0.00     0.010 C 
BRANCH  24  26
HETATM   26  C   UNK N   1     -28.434  27.083 -18.067  0.00  0.00    -0.019 C 
HETATM   27  C   UNK N   1     -27.824  28.426 -18.493  0.00  0.00     0.010 C 
HETATM   28  C   UNK N   1     -27.501  25.929 -18.474  0.00  0.00     0.010 C 
ENDBRANCH  24  26
ENDBRANCH  23  24
ENDBRANCH  22  23
ENDBRANCH  20  22
ENDBRANCH   5  20
BRANCH  19  29
HETATM   29  O   UNK N   1     -15.394  24.193 -17.644  0.00  0.00    -0.395 OA
HETATM   30  H   UNK N   1     -14.708  24.203 -16.928  0.00  0.00     0.210 HD
ENDBRANCH  19  29
TORSDOF 6
ENDMDL
MODEL 2
REMARK VINA RESULT:      -7.1      3.266      8.648
REMARK  6 active torsions:
REMARK  status: ('A' for Active; 'I' for Inactive)
REMARK    1  A    between atoms: O_1  and  C_22 
REMARK    2  A    between atoms: C_6  and  C_13 
REMARK    3  A    between atoms: C_13  and  C_21 
REMARK    4  A    between atoms: C_21  and  C_24 
REMARK    5  A    between atoms: C_24  and  C_25 
REMARK    6  A    between atoms: C_25  and  C_26 
ROOT
HETATM    1  C   UNK N   1     -22.056  26.389 -17.284  0.00  0.00    -0.036 C 
HETATM    2  C   UNK N   1     -23.175  25.573 -17.966  0.00  0.00    -0.001 C 
HETATM    3  C   UNK N   1     -24.593  25.981 -17.503  0.00  0.00    -0.001 C 
HETATM    4  C   UNK N   1     -24.815  27.487 -17.778  0.00  0.00     0.003 C 
HETATM    5  C   UNK N   1     -20.826  25.702 -17.928  0.00  0.00    -0.002 C 
HETATM    6  C   UNK N   1     -22.276  27.870 -17.704  0.00  0.00     0.010 C 
HETATM    7  C   UNK N   1     -26.233  27.946 -17.249  0.00  0.00    -0.017 C 
HETATM    8  C   UNK N   1     -22.740  24.128 -17.775  0.00  0.00     0.006 C 
HETATM    9  C   UNK N   1     -23.649  28.373 -17.241  0.00  0.00     0.007 C 
HETATM   10  C   UNK N   1     -21.204  24.191 -17.909  0.00  0.00     0.006 C 
HETATM   11  C   UNK N   1     -25.652  25.164 -18.269  0.00  0.00     0.033 C 
HETATM   12  C   UNK N   1     -22.010  26.236 -15.728  0.00  0.00     0.016 C 
HETATM   13  C   UNK N   1     -27.324  26.935 -17.638  0.00  0.00    -0.072 C 
HETATM   14  C   UNK N   1     -26.575  29.305 -17.937  0.00  0.00     0.016 C 
HETATM   15  C   UNK N   1     -27.050  25.707 -18.122  0.00  0.00    -0.023 C 
HETATM   16  C   UNK N   1     -26.260  28.100 -15.702  0.00  0.00     0.020 C 
HETATM   17  C   UNK N   1     -28.772  27.367 -17.475  0.00  0.00     0.066 C 
HETATM   18  C   UNK N   1     -28.026  29.761 -17.704  0.00  0.00     0.033 C 
HETATM   19  C   UNK N   1     -29.009  28.693 -18.213  0.00  0.00     0.122 C 
ENDROOT
BRANCH   5  20
HETATM   20  C   UNK N   1     -19.390  25.977 -17.378  0.00  0.00    -0.014 C 
HETATM   21  C   UNK N   1     -18.572  26.943 -18.254  0.00  0.00     0.010 C 
BRANCH  20  22
HETATM   22  C   UNK N   1     -18.594  24.667 -17.150  0.00  0.00     0.005 C 
BRANCH  22  23
HETATM   23  C   UNK N   1     -18.159  24.428 -15.690  0.00  0.00     0.005 C 
BRANCH  23  24
HETATM   24  C   UNK N   1     -18.761  23.149 -15.061  0.00  0.00    -0.015 C 
HETATM   25  C   UNK N   1     -17.690  22.041 -15.108  0.00  0.00     0.010 C 
BRANCH  24  26
HETATM   26  C   UNK N   1     -19.350  23.381 -13.627  0.00  0.00    -0.019 C 
HETATM   27  C   UNK N   1     -18.322  23.086 -12.526  0.00  0.00     0.010 C 
HETATM   28  C   UNK N   1     -19.948  24.785 -13.424  0.00  0.00     0.010 C 
ENDBRANCH  24  26
ENDBRANCH  23  24
ENDBRANCH  22  23
ENDBRANCH  20  22
ENDBRANCH   5  20
BRANCH  19  29
HETATM   29  O   UNK N   1     -30.320  29.141 -17.991  0.00  0.00    -0.395 OA
HETATM   30  H   UNK N   1     -30.318  30.120 -18.153  0.00  0.00     0.210 HD
ENDBRANCH  19  29
TORSDOF 6
ENDMDL
MODEL 3
REMARK VINA RESULT:      -7.1     28.523     30.082
REMARK  6 active torsions:
REMARK  status: ('A' for Active; 'I' for Inactive)
REMARK    1  A    between atoms: O_1  and  C_22 
REMARK    2  A    between atoms: C_6  and  C_13 
REMARK    3  A    between atoms: C_13  and  C_21 
REMARK    4  A    between atoms: C_21  and  C_24 
REMARK    5  A    between atoms: C_24  and  C_25 
REMARK    6  A    between atoms: C_25  and  C_26 
ROOT
HETATM    1  C   UNK N   1     -28.238  -1.886 -15.130  0.00  0.00    -0.036 C 
HETATM    2  C   UNK N   1     -27.192  -2.864 -14.552  0.00  0.00    -0.001 C 
HETATM    3  C   UNK N   1     -27.782  -3.834 -13.502  0.00  0.00    -0.001 C 
HETATM    4  C   UNK N   1     -28.943  -4.638 -14.136  0.00  0.00     0.003 C 
HETATM    5  C   UNK N   1     -27.315  -1.071 -16.071  0.00  0.00    -0.002 C 
HETATM    6  C   UNK N   1     -29.303  -2.761 -15.851  0.00  0.00     0.010 C 
HETATM    7  C   UNK N   1     -29.611  -5.589 -13.063  0.00  0.00    -0.017 C 
HETATM    8  C   UNK N   1     -26.042  -1.960 -14.134  0.00  0.00     0.006 C 
HETATM    9  C   UNK N   1     -29.975  -3.727 -14.867  0.00  0.00     0.007 C 
HETATM   10  C   UNK N   1     -26.023  -0.869 -15.224  0.00  0.00     0.006 C 
HETATM   11  C   UNK N   1     -26.694  -4.811 -13.017  0.00  0.00     0.033 C 
HETATM   12  C   UNK N   1     -28.894  -0.947 -14.066  0.00  0.00     0.016 C 
HETATM   13  C   UNK N   1     -28.545  -6.321 -12.230  0.00  0.00    -0.072 C 
HETATM   14  C   UNK N   1     -30.435  -6.666 -13.836  0.00  0.00     0.016 C 
HETATM   15  C   UNK N   1     -27.241  -5.983 -12.244  0.00  0.00    -0.023 C 
HETATM   16  C   UNK N   1     -30.527  -4.810 -12.078  0.00  0.00     0.020 C 
HETATM   17  C   UNK N   1     -29.005  -7.488 -11.371  0.00  0.00     0.066 C 
HETATM   18  C   UNK N   1     -30.951  -7.804 -12.937  0.00  0.00     0.033 C 
HETATM   19  C   UNK N   1     -29.775  -8.500 -12.231  0.00  0.00     0.122 C 
ENDROOT
BRANCH   5  20
HETATM   20  C   UNK N   1     -27.827   0.252 -16.726  0.00  0.00    -0.014 C 
HETATM   21  C   UNK N   1     -28.347   0.063 -18.163  0.00  0.00     0.010 C 
BRANCH  20  22
HETATM   22  C   UNK N   1     -26.753   1.368 -16.695  0.00  0.00     0.005 C 
BRANCH  22  23
HETATM   23  C   UNK N   1     -26.930   2.456 -17.775  0.00  0.00     0.005 C 
BRANCH  23  24
HETATM   24  C   UNK N   1     -25.609   3.152 -18.181  0.00  0.00    -0.015 C 
HETATM   25  C   UNK N   1     -24.445   2.409 -17.498  0.00  0.00     0.010 C 
BRANCH  24  26
HETATM   26  C   UNK N   1     -25.432   3.288 -19.733  0.00  0.00    -0.019 C 
HETATM   27  C   UNK N   1     -23.955   3.384 -20.139  0.00  0.00     0.010 C 
HETATM   28  C   UNK N   1     -26.126   2.171 -20.534  0.00  0.00     0.010 C 
ENDBRANCH  24  26
ENDBRANCH  23  24
ENDBRANCH  22  23
ENDBRANCH  20  22
ENDBRANCH   5  20
BRANCH  19  29
HETATM   29  O   UNK N   1     -30.278  -9.534 -11.426  0.00  0.00    -0.395 OA
HETATM   30  H   UNK N   1     -30.998  -9.976 -11.945  0.00  0.00     0.210 HD
ENDBRANCH  19  29
TORSDOF 6
ENDMDL
MODEL 4
REMARK VINA RESULT:      -7.1      5.014      8.752
REMARK  6 active torsions:
REMARK  status: ('A' for Active; 'I' for Inactive)
REMARK    1  A    between atoms: O_1  and  C_22 
REMARK    2  A    between atoms: C_6  and  C_13 
REMARK    3  A    between atoms: C_13  and  C_21 
REMARK    4  A    between atoms: C_21  and  C_24 
REMARK    5  A    between atoms: C_24  and  C_25 
REMARK    6  A    between atoms: C_25  and  C_26 
ROOT
HETATM    1  C   UNK N   1     -27.513  30.402 -16.782  0.00  0.00    -0.036 C 
HETATM    2  C   UNK N   1     -28.211  31.350 -17.781  0.00  0.00    -0.001 C 
HETATM    3  C   UNK N   1     -27.497  32.713 -17.926  0.00  0.00    -0.001 C 
HETATM    4  C   UNK N   1     -26.032  32.487 -18.370  0.00  0.00     0.003 C 
HETATM    5  C   UNK N   1     -28.493  29.204 -16.856  0.00  0.00    -0.002 C 
HETATM    6  C   UNK N   1     -26.094  30.127 -17.358  0.00  0.00     0.010 C 
HETATM    7  C   UNK N   1     -25.258  33.863 -18.457  0.00  0.00    -0.017 C 
HETATM    8  C   UNK N   1     -29.665  31.339 -17.336  0.00  0.00     0.006 C 
HETATM    9  C   UNK N   1     -25.295  31.430 -17.491  0.00  0.00     0.007 C 
HETATM   10  C   UNK N   1     -29.894  29.884 -16.878  0.00  0.00     0.006 C 
HETATM   11  C   UNK N   1     -28.218  33.577 -18.978  0.00  0.00     0.033 C 
HETATM   12  C   UNK N   1     -27.440  30.953 -15.320  0.00  0.00     0.016 C 
HETATM   13  C   UNK N   1     -26.107  34.934 -19.161  0.00  0.00    -0.072 C 
HETATM   14  C   UNK N   1     -23.977  33.629 -19.318  0.00  0.00     0.016 C 
HETATM   15  C   UNK N   1     -27.422  34.779 -19.416  0.00  0.00    -0.023 C 
HETATM   16  C   UNK N   1     -24.875  34.411 -17.053  0.00  0.00     0.020 C 
HETATM   17  C   UNK N   1     -25.408  36.212 -19.595  0.00  0.00     0.066 C 
HETATM   18  C   UNK N   1     -23.243  34.930 -19.690  0.00  0.00     0.033 C 
HETATM   19  C   UNK N   1     -24.185  35.872 -20.459  0.00  0.00     0.122 C 
ENDROOT
BRANCH   5  20
HETATM   20  C   UNK N   1     -28.396  28.039 -15.820  0.00  0.00    -0.014 C 
HETATM   21  C   UNK N   1     -27.077  28.033 -15.026  0.00  0.00     0.010 C 
BRANCH  20  22
HETATM   22  C   UNK N   1     -28.623  26.655 -16.479  0.00  0.00     0.005 C 
BRANCH  22  23
HETATM   23  C   UNK N   1     -27.385  25.735 -16.477  0.00  0.00     0.005 C 
BRANCH  23  24
HETATM   24  C   UNK N   1     -26.929  25.299 -17.890  0.00  0.00    -0.015 C 
HETATM   25  C   UNK N   1     -27.668  26.172 -18.923  0.00  0.00     0.010 C 
BRANCH  24  26
HETATM   26  C   UNK N   1     -25.372  25.309 -18.069  0.00  0.00    -0.019 C 
HETATM   27  C   UNK N   1     -24.738  26.600 -17.534  0.00  0.00     0.010 C 
HETATM   28  C   UNK N   1     -24.671  24.084 -17.454  0.00  0.00     0.010 C 
ENDBRANCH  24  26
ENDBRANCH  23  24
ENDBRANCH  22  23
ENDBRANCH  20  22
ENDBRANCH   5  20
BRANCH  19  29
HETATM   29  O   UNK N   1     -23.485  37.043 -20.788  0.00  0.00    -0.395 OA
HETATM   30  H   UNK N   1     -23.670  37.698 -20.066  0.00  0.00     0.210 HD
ENDBRANCH  19  29
TORSDOF 6
ENDMDL
MODEL 5
REMARK VINA RESULT:      -6.9      7.582     11.764
REMARK  6 active torsions:
REMARK  status: ('A' for Active; 'I' for Inactive)
REMARK    1  A    between atoms: O_1  and  C_22 
REMARK    2  A    between atoms: C_6  and  C_13 
REMARK    3  A    between atoms: C_13  and  C_21 
REMARK    4  A    between atoms: C_21  and  C_24 
REMARK    5  A    between atoms: C_24  and  C_25 
REMARK    6  A    between atoms: C_25  and  C_26 
ROOT
HETATM    1  C   UNK N   1     -24.458  22.089  -9.841  0.00  0.00    -0.036 C 
HETATM    2  C   UNK N   1     -25.739  22.821  -9.385  0.00  0.00    -0.001 C 
HETATM    3  C   UNK N   1     -27.034  22.045  -9.718  0.00  0.00    -0.001 C 
HETATM    4  C   UNK N   1     -26.982  20.645  -9.063  0.00  0.00     0.003 C 
HETATM    5  C   UNK N   1     -23.407  23.140  -9.403  0.00  0.00    -0.002 C 
HETATM    6  C   UNK N   1     -24.416  20.749  -9.051  0.00  0.00     0.010 C 
HETATM    7  C   UNK N   1     -28.265  19.803  -9.447  0.00  0.00    -0.017 C 
HETATM    8  C   UNK N   1     -25.573  24.226  -9.945  0.00  0.00     0.006 C 
HETATM    9  C   UNK N   1     -25.649  19.892  -9.361  0.00  0.00     0.007 C 
HETATM   10  C   UNK N   1     -24.061  24.495  -9.809  0.00  0.00     0.006 C 
HETATM   11  C   UNK N   1     -28.260  22.811  -9.183  0.00  0.00     0.033 C 
HETATM   12  C   UNK N   1     -24.374  21.847 -11.383  0.00  0.00     0.016 C 
HETATM   13  C   UNK N   1     -29.541  20.651  -9.325  0.00  0.00    -0.072 C 
HETATM   14  C   UNK N   1     -28.377  18.624  -8.429  0.00  0.00     0.016 C 
HETATM   15  C   UNK N   1     -29.523  21.990  -9.176  0.00  0.00    -0.023 C 
HETATM   16  C   UNK N   1     -28.195  19.259 -10.901  0.00  0.00     0.020 C 
HETATM   17  C   UNK N   1     -30.875  19.922  -9.362  0.00  0.00     0.066 C 
HETATM   18  C   UNK N   1     -29.705  17.854  -8.528  0.00  0.00     0.033 C 
HETATM   19  C   UNK N   1     -30.892  18.807  -8.306  0.00  0.00     0.122 C 
ENDROOT
BRANCH   5  20
HETATM   20  C   UNK N   1     -21.922  23.015  -9.873  0.00  0.00    -0.014 C 
HETATM   21  C   UNK N   1     -20.945  22.685  -8.731  0.00  0.00     0.010 C 
BRANCH  20  22
HETATM   22  C   UNK N   1     -21.444  24.279 -10.630  0.00  0.00     0.005 C 
BRANCH  22  23
HETATM   23  C   UNK N   1     -19.954  24.261 -11.027  0.00  0.00     0.005 C 
BRANCH  23  24
HETATM   24  C   UNK N   1     -19.610  23.216 -12.115  0.00  0.00    -0.015 C 
HETATM   25  C   UNK N   1     -19.689  23.910 -13.489  0.00  0.00     0.010 C 
BRANCH  24  26
HETATM   26  C   UNK N   1     -18.245  22.488 -11.866  0.00  0.00    -0.019 C 
HETATM   27  C   UNK N   1     -17.736  22.691 -10.432  0.00  0.00     0.010 C 
HETATM   28  C   UNK N   1     -18.274  20.987 -12.205  0.00  0.00     0.010 C 
ENDBRANCH  24  26
ENDBRANCH  23  24
ENDBRANCH  22  23
ENDBRANCH  20  22
ENDBRANCH   5  20
BRANCH  19  29
HETATM   29  O   UNK N   1     -32.085  18.074  -8.397  0.00  0.00    -0.395 OA
HETATM   30  H   UNK N   1     -31.908  17.315  -9.010  0.00  0.00     0.210 HD
ENDBRANCH  19  29
TORSDOF 6
ENDMDL
MODEL 6
REMARK VINA RESULT:      -6.8     28.311     29.716
REMARK  6 active torsions:
REMARK  status: ('A' for Active; 'I' for Inactive)
REMARK    1  A    between atoms: O_1  and  C_22 
REMARK    2  A    between atoms: C_6  and  C_13 
REMARK    3  A    between atoms: C_13  and  C_21 
REMARK    4  A    between atoms: C_21  and  C_24 
REMARK    5  A    between atoms: C_24  and  C_25 
REMARK    6  A    between atoms: C_25  and  C_26 
ROOT
HETATM    1  C   UNK N   1     -28.790  -2.747 -15.345  0.00  0.00    -0.036 C 
HETATM    2  C   UNK N   1     -28.471  -1.293 -14.934  0.00  0.00    -0.001 C 
HETATM    3  C   UNK N   1     -27.372  -0.642 -15.805  0.00  0.00    -0.001 C 
HETATM    4  C   UNK N   1     -27.803  -0.674 -17.291  0.00  0.00     0.003 C 
HETATM    5  C   UNK N   1     -29.854  -3.078 -14.268  0.00  0.00    -0.002 C 
HETATM    6  C   UNK N   1     -29.328  -2.682 -16.803  0.00  0.00     0.010 C 
HETATM    7  C   UNK N   1     -26.665  -0.077 -18.213  0.00  0.00    -0.017 C 
HETATM    8  C   UNK N   1     -28.245  -1.382 -13.432  0.00  0.00     0.006 C 
HETATM    9  C   UNK N   1     -28.277  -2.087 -17.748  0.00  0.00     0.007 C 
HETATM   10  C   UNK N   1     -29.267  -2.442 -12.973  0.00  0.00     0.006 C 
HETATM   11  C   UNK N   1     -27.153   0.820 -15.371  0.00  0.00     0.033 C 
HETATM   12  C   UNK N   1     -27.576  -3.727 -15.226  0.00  0.00     0.016 C 
HETATM   13  C   UNK N   1     -26.090   1.218 -17.616  0.00  0.00    -0.072 C 
HETATM   14  C   UNK N   1     -27.310   0.278 -19.589  0.00  0.00     0.016 C 
HETATM   15  C   UNK N   1     -26.342   1.623 -16.355  0.00  0.00    -0.023 C 
HETATM   16  C   UNK N   1     -25.486  -1.071 -18.407  0.00  0.00     0.020 C 
HETATM   17  C   UNK N   1     -25.211   2.075 -18.513  0.00  0.00     0.066 C 
HETATM   18  C   UNK N   1     -26.381   1.086 -20.511  0.00  0.00     0.033 C 
HETATM   19  C   UNK N   1     -25.950   2.392 -19.821  0.00  0.00     0.122 C 
ENDROOT
BRANCH   5  20
HETATM   20  C   UNK N   1     -30.336  -4.549 -14.061  0.00  0.00    -0.014 C 
HETATM   21  C   UNK N   1     -31.433  -4.980 -15.051  0.00  0.00     0.010 C 
BRANCH  20  22
HETATM   22  C   UNK N   1     -30.806  -4.806 -12.607  0.00  0.00     0.005 C 
BRANCH  22  23
HETATM   23  C   UNK N   1     -29.926  -5.796 -11.816  0.00  0.00     0.005 C 
BRANCH  23  24
HETATM   24  C   UNK N   1     -29.052  -6.707 -12.711  0.00  0.00    -0.015 C 
HETATM   25  C   UNK N   1     -27.572  -6.376 -12.431  0.00  0.00     0.010 C 
BRANCH  24  26
HETATM   26  C   UNK N   1     -29.386  -8.231 -12.558  0.00  0.00    -0.019 C 
HETATM   27  C   UNK N   1     -28.941  -8.785 -11.198  0.00  0.00     0.010 C 
HETATM   28  C   UNK N   1     -30.868  -8.566 -12.804  0.00  0.00     0.010 C 
ENDBRANCH  24  26
ENDBRANCH  23  24
ENDBRANCH  22  23
ENDBRANCH  20  22
ENDBRANCH   5  20
BRANCH  19  29
HETATM   29  O   UNK N   1     -25.110   3.107 -20.689  0.00  0.00    -0.395 OA
HETATM   30  H   UNK N   1     -25.552   3.108 -21.577  0.00  0.00     0.210 HD
ENDBRANCH  19  29
TORSDOF 6
ENDMDL
MODEL 7
REMARK VINA RESULT:      -6.8     28.824     30.464
REMARK  6 active torsions:
REMARK  status: ('A' for Active; 'I' for Inactive)
REMARK    1  A    between atoms: O_1  and  C_22 
REMARK    2  A    between atoms: C_6  and  C_13 
REMARK    3  A    between atoms: C_13  and  C_21 
REMARK    4  A    between atoms: C_21  and  C_24 
REMARK    5  A    between atoms: C_24  and  C_25 
REMARK    6  A    between atoms: C_25  and  C_26 
ROOT
HETATM    1  C   UNK N   1     -26.634  -2.429 -14.740  0.00  0.00    -0.036 C 
HETATM    2  C   UNK N   1     -27.872  -2.450 -13.816  0.00  0.00    -0.001 C 
HETATM    3  C   UNK N   1     -28.529  -3.845 -13.712  0.00  0.00    -0.001 C 
HETATM    4  C   UNK N   1     -27.489  -4.871 -13.202  0.00  0.00     0.003 C 
HETATM    5  C   UNK N   1     -26.284  -0.923 -14.645  0.00  0.00    -0.002 C 
HETATM    6  C   UNK N   1     -25.592  -3.389 -14.098  0.00  0.00     0.010 C 
HETATM    7  C   UNK N   1     -28.116  -6.322 -13.152  0.00  0.00    -0.017 C 
HETATM    8  C   UNK N   1     -28.717  -1.288 -14.315  0.00  0.00     0.006 C 
HETATM    9  C   UNK N   1     -26.149  -4.814 -13.998  0.00  0.00     0.007 C 
HETATM   10  C   UNK N   1     -27.673  -0.223 -14.711  0.00  0.00     0.006 C 
HETATM   11  C   UNK N   1     -29.717  -3.796 -12.732  0.00  0.00     0.033 C 
HETATM   12  C   UNK N   1     -26.936  -2.822 -16.224  0.00  0.00     0.016 C 
HETATM   13  C   UNK N   1     -29.524  -6.297 -12.535  0.00  0.00    -0.072 C 
HETATM   14  C   UNK N   1     -27.208  -7.197 -12.233  0.00  0.00     0.016 C 
HETATM   15  C   UNK N   1     -30.214  -5.159 -12.323  0.00  0.00    -0.023 C 
HETATM   16  C   UNK N   1     -28.231  -6.959 -14.566  0.00  0.00     0.020 C 
HETATM   17  C   UNK N   1     -30.140  -7.628 -12.138  0.00  0.00     0.066 C 
HETATM   18  C   UNK N   1     -27.817  -8.569 -11.897  0.00  0.00     0.033 C 
HETATM   19  C   UNK N   1     -29.183  -8.393 -11.212  0.00  0.00     0.122 C 
ENDROOT
BRANCH   5  20
HETATM   20  C   UNK N   1     -25.237  -0.293 -15.618  0.00  0.00    -0.014 C 
HETATM   21  C   UNK N   1     -23.819  -0.870 -15.451  0.00  0.00     0.010 C 
BRANCH  20  22
HETATM   22  C   UNK N   1     -25.196   1.252 -15.506  0.00  0.00     0.005 C 
BRANCH  22  23
HETATM   23  C   UNK N   1     -25.464   1.997 -16.829  0.00  0.00     0.005 C 
BRANCH  23  24
HETATM   24  C   UNK N   1     -26.303   1.184 -17.845  0.00  0.00    -0.015 C 
HETATM   25  C   UNK N   1     -27.690   1.846 -17.958  0.00  0.00     0.010 C 
BRANCH  24  26
HETATM   26  C   UNK N   1     -25.590   0.996 -19.228  0.00  0.00    -0.019 C 
HETATM   27  C   UNK N   1     -24.256   1.753 -19.297  0.00  0.00     0.010 C 
HETATM   28  C   UNK N   1     -25.380  -0.477 -19.620  0.00  0.00     0.010 C 
ENDBRANCH  24  26
ENDBRANCH  23  24
ENDBRANCH  22  23
ENDBRANCH  20  22
ENDBRANCH   5  20
BRANCH  19  29
HETATM   29  O   UNK N   1     -29.708  -9.660 -10.915  0.00  0.00    -0.395 OA
HETATM   30  H   UNK N   1     -29.892  -9.672  -9.940  0.00  0.00     0.210 HD
ENDBRANCH  19  29
TORSDOF 6
ENDMDL
MODEL 8
REMARK VINA RESULT:      -6.8     27.528     28.971
REMARK  6 active torsions:
REMARK  status: ('A' for Active; 'I' for Inactive)
REMARK    1  A    between atoms: O_1  and  C_22 
REMARK    2  A    between atoms: C_6  and  C_13 
REMARK    3  A    between atoms: C_13  and  C_21 
REMARK    4  A    between atoms: C_21  and  C_24 
REMARK    5  A    between atoms: C_24  and  C_25 
REMARK    6  A    between atoms: C_25  and  C_26 
ROOT
HETATM    1  C   UNK N   1     -28.607  -2.237 -15.696  0.00  0.00    -0.036 C 
HETATM    2  C   UNK N   1     -28.066  -0.951 -15.034  0.00  0.00    -0.001 C 
HETATM    3  C   UNK N   1     -26.897  -0.310 -15.817  0.00  0.00    -0.001 C 
HETATM    4  C   UNK N   1     -27.354   0.008 -17.261  0.00  0.00     0.003 C 
HETATM    5  C   UNK N   1     -29.689  -2.612 -14.652  0.00  0.00    -0.002 C 
HETATM    6  C   UNK N   1     -29.155  -1.815 -17.089  0.00  0.00     0.010 C 
HETATM    7  C   UNK N   1     -26.156   0.601 -18.106  0.00  0.00    -0.017 C 
HETATM    8  C   UNK N   1     -27.829  -1.359 -13.588  0.00  0.00     0.006 C 
HETATM    9  C   UNK N   1     -28.044  -1.207 -17.953  0.00  0.00     0.007 C 
HETATM   10  C   UNK N   1     -28.990  -2.329 -13.289  0.00  0.00     0.006 C 
HETATM   11  C   UNK N   1     -26.453   0.994 -15.127  0.00  0.00     0.033 C 
HETATM   12  C   UNK N   1     -27.552  -3.385 -15.820  0.00  0.00     0.016 C 
HETATM   13  C   UNK N   1     -25.383   1.661 -17.304  0.00  0.00    -0.072 C 
HETATM   14  C   UNK N   1     -26.766   1.304 -19.359  0.00  0.00     0.016 C 
HETATM   15  C   UNK N   1     -25.549   1.847 -15.979  0.00  0.00    -0.023 C 
HETATM   16  C   UNK N   1     -25.144  -0.496 -18.538  0.00  0.00     0.020 C 
HETATM   17  C   UNK N   1     -24.401   2.539 -18.063  0.00  0.00     0.066 C 
HETATM   18  C   UNK N   1     -25.742   2.132 -20.156  0.00  0.00     0.033 C 
HETATM   19  C   UNK N   1     -25.107   3.205 -19.253  0.00  0.00     0.122 C 
ENDROOT
BRANCH   5  20
HETATM   20  C   UNK N   1     -30.383  -4.010 -14.703  0.00  0.00    -0.014 C 
HETATM   21  C   UNK N   1     -31.757  -3.988 -15.396  0.00  0.00     0.010 C 
BRANCH  20  22
HETATM   22  C   UNK N   1     -30.512  -4.646 -13.295  0.00  0.00     0.005 C 
BRANCH  22  23
HETATM   23  C   UNK N   1     -30.088  -6.127 -13.221  0.00  0.00     0.005 C 
BRANCH  23  24
HETATM   24  C   UNK N   1     -28.959  -6.402 -12.198  0.00  0.00    -0.015 C 
HETATM   25  C   UNK N   1     -29.311  -7.691 -11.430  0.00  0.00     0.010 C 
BRANCH  24  26
HETATM   26  C   UNK N   1     -27.532  -6.436 -12.845  0.00  0.00    -0.019 C 
HETATM   27  C   UNK N   1     -27.582  -6.807 -14.334  0.00  0.00     0.010 C 
HETATM   28  C   UNK N   1     -26.735  -5.133 -12.654  0.00  0.00     0.010 C 
ENDBRANCH  24  26
ENDBRANCH  23  24
ENDBRANCH  22  23
ENDBRANCH  20  22
ENDBRANCH   5  20
BRANCH  19  29
HETATM   29  O   UNK N   1     -24.185   3.944 -20.009  0.00  0.00    -0.395 OA
HETATM   30  H   UNK N   1     -23.674   4.504 -19.369  0.00  0.00     0.210 HD
ENDBRANCH  19  29
TORSDOF 6
ENDMDL
MODEL 9
REMARK VINA RESULT:      -6.8     13.605     18.217
REMARK  6 active torsions:
REMARK  status: ('A' for Active; 'I' for Inactive)
REMARK    1  A    between atoms: O_1  and  C_22 
REMARK    2  A    between atoms: C_6  and  C_13 
REMARK    3  A    between atoms: C_13  and  C_21 
REMARK    4  A    between atoms: C_21  and  C_24 
REMARK    5  A    between atoms: C_24  and  C_25 
REMARK    6  A    between atoms: C_25  and  C_26 
ROOT
HETATM    1  C   UNK N   1     -11.961  18.425  -5.093  0.00  0.00    -0.036 C 
HETATM    2  C   UNK N   1     -12.776  18.702  -6.376  0.00  0.00    -0.001 C 
HETATM    3  C   UNK N   1     -14.283  18.398  -6.215  0.00  0.00    -0.001 C 
HETATM    4  C   UNK N   1     -14.859  19.236  -5.049  0.00  0.00     0.003 C 
HETATM    5  C   UNK N   1     -10.548  18.780  -5.621  0.00  0.00    -0.002 C 
HETATM    6  C   UNK N   1     -12.518  19.387  -4.005  0.00  0.00     0.010 C 
HETATM    7  C   UNK N   1     -16.386  18.892  -4.818  0.00  0.00    -0.017 C 
HETATM    8  C   UNK N   1     -12.003  17.970  -7.462  0.00  0.00     0.006 C 
HETATM    9  C   UNK N   1     -14.006  19.121  -3.749  0.00  0.00     0.007 C 
HETATM   10  C   UNK N   1     -10.528  18.160  -7.049  0.00  0.00     0.006 C 
HETATM   11  C   UNK N   1     -15.033  18.752  -7.514  0.00  0.00     0.033 C 
HETATM   12  C   UNK N   1     -12.003  16.936  -4.616  0.00  0.00     0.016 C 
HETATM   13  C   UNK N   1     -17.147  18.823  -6.152  0.00  0.00    -0.072 C 
HETATM   14  C   UNK N   1     -17.007  20.049  -3.974  0.00  0.00     0.016 C 
HETATM   15  C   UNK N   1     -16.530  18.793  -7.350  0.00  0.00    -0.023 C 
HETATM   16  C   UNK N   1     -16.576  17.530  -4.094  0.00  0.00     0.020 C 
HETATM   17  C   UNK N   1     -18.666  18.804  -6.094  0.00  0.00     0.066 C 
HETATM   18  C   UNK N   1     -18.540  19.975  -3.868  0.00  0.00     0.033 C 
HETATM   19  C   UNK N   1     -19.173  19.996  -5.270  0.00  0.00     0.122 C 
ENDROOT
BRANCH   5  20
HETATM   20  C   UNK N   1      -9.279  18.422  -4.782  0.00  0.00    -0.014 C 
HETATM   21  C   UNK N   1      -9.435  18.714  -3.279  0.00  0.00     0.010 C 
BRANCH  20  22
HETATM   22  C   UNK N   1      -8.008  19.119  -5.327  0.00  0.00     0.005 C 
BRANCH  22  23
HETATM   23  C   UNK N   1      -7.557  20.351  -4.517  0.00  0.00     0.005 C 
BRANCH  23  24
HETATM   24  C   UNK N   1      -7.981  21.701  -5.145  0.00  0.00    -0.015 C 
HETATM   25  C   UNK N   1      -8.463  21.429  -6.584  0.00  0.00     0.010 C 
BRANCH  24  26
HETATM   26  C   UNK N   1      -9.025  22.487  -4.279  0.00  0.00    -0.019 C 
HETATM   27  C   UNK N   1     -10.469  22.183  -4.701  0.00  0.00     0.010 C 
HETATM   28  C   UNK N   1      -8.862  22.267  -2.765  0.00  0.00     0.010 C 
ENDBRANCH  24  26
ENDBRANCH  23  24
ENDBRANCH  22  23
ENDBRANCH  20  22
ENDBRANCH   5  20
BRANCH  19  29
HETATM   29  O   UNK N   1     -20.569  19.933  -5.138  0.00  0.00    -0.395 OA
HETATM   30  H   UNK N   1     -20.793  18.993  -4.914  0.00  0.00     0.210 HD
ENDBRANCH  19  29
TORSDOF 6
ENDMDL
