MODEL 1
REMARK VINA RESULT:      -8.0      0.000      0.000
REMARK  2 active torsions:
REMARK  status: ('A' for Active; 'I' for Inactive)
REMARK    1  A    between atoms: O_1  and  C_24 
REMARK    2  A    between atoms: C_16  and  C_27 
ROOT
HETATM    1  C   UNK N   1     -28.220  -1.865 -15.689  0.00  0.00    -0.032 C 
HETATM    2  C   UNK N   1     -28.395  -3.451 -15.370  0.00  0.00    -0.032 C 
HETATM    3  C   UNK N   1     -26.672  -1.501 -15.634  0.00  0.00     0.003 C 
HETATM    4  C   UNK N   1     -27.756  -3.749 -13.943  0.00  0.00    -0.000 C 
HETATM    5  C   UNK N   1     -26.228  -0.063 -16.171  0.00  0.00    -0.035 C 
HETATM    6  C   UNK N   1     -28.023  -5.223 -13.523  0.00  0.00     0.006 C 
HETATM    7  C   UNK N   1     -29.536  -5.518 -13.440  0.00  0.00    -0.039 C 
HETATM    8  C   UNK N   1     -26.876   0.141 -17.589  0.00  0.00     0.004 C 
HETATM    9  C   UNK N   1     -29.915  -3.894 -15.365  0.00  0.00     0.011 C 
HETATM   10  C   UNK N   1     -28.746  -1.514 -17.114  0.00  0.00     0.011 C 
HETATM   11  C   UNK N   1     -26.066  -1.870 -14.250  0.00  0.00     0.006 C 
HETATM   12  C   UNK N   1     -26.266  -3.357 -13.911  0.00  0.00     0.006 C 
HETATM   13  C   UNK N   1     -30.153  -5.336 -14.849  0.00  0.00     0.010 C 
HETATM   14  C   UNK N   1     -28.413  -0.083 -17.572  0.00  0.00     0.007 C 
HETATM   15  C   UNK N   1     -27.484  -5.769 -12.186  0.00  0.00     0.018 C 
HETATM   16  C   UNK N   1     -26.412   1.453 -18.371  0.00  0.00    -0.017 C 
HETATM   17  C   UNK N   1     -24.650  -0.063 -16.350  0.00  0.00     0.012 C 
HETATM   18  C   UNK N   1     -29.063  -1.022 -14.664  0.00  0.00     0.016 C 
HETATM   19  C   UNK N   1     -27.697  -4.340 -16.478  0.00  0.00     0.016 C 
HETATM   20  C   UNK N   1     -29.492  -6.975 -12.971  0.00  0.00     0.010 C 
HETATM   21  C   UNK N   1     -28.415  -6.976 -11.869  0.00  0.00     0.010 C 
HETATM   22  C   UNK N   1     -26.594   1.091 -15.186  0.00  0.00     0.016 C 
HETATM   23  C   UNK N   1     -24.891   1.797 -18.085  0.00  0.00     0.126 C 
HETATM   24  C   UNK N   1     -24.128   0.530 -17.686  0.00  0.00     0.033 C 
HETATM   25  C   UNK N   1     -30.327  -4.667 -12.390  0.00  0.00     0.015 C 
HETATM   26  C   UNK N   1     -26.553   1.154 -19.893  0.00  0.00     0.018 C 
HETATM   27  C   UNK N   1     -27.300   2.692 -18.090  0.00  0.00     0.018 C 
ENDROOT
BRANCH  15  28
HETATM   28  C   UNK N   1     -26.004  -6.142 -12.184  0.00  0.00    -0.089 C 
HETATM   29  C   UNK N   1     -25.053  -5.517 -11.187  0.00  0.00     0.043 C 
HETATM   30  C   UNK N   1     -25.535  -7.028 -13.081  0.00  0.00     0.014 C 
ENDBRANCH  15  28
BRANCH  23  31
HETATM   31  O   UNK N   1     -24.739   2.762 -17.077  0.00  0.00    -0.395 OA
HETATM   32  H   UNK N   1     -24.686   3.650 -17.520  0.00  0.00     0.210 HD
ENDBRANCH  23  31
TORSDOF 2
ENDMDL
MODEL 2
REMARK VINA RESULT:      -7.7     28.010     33.641
REMARK  2 active torsions:
REMARK  status: ('A' for Active; 'I' for Inactive)
REMARK    1  A    between atoms: O_1  and  C_24 
REMARK    2  A    between atoms: C_16  and  C_27 
ROOT
HETATM    1  C   UNK N   1     -26.180  29.954 -15.798  0.00  0.00    -0.032 C 
HETATM    2  C   UNK N   1     -26.057  31.513 -16.245  0.00  0.00    -0.032 C 
HETATM    3  C   UNK N   1     -27.248  29.236 -16.734  0.00  0.00     0.003 C 
HETATM    4  C   UNK N   1     -27.498  32.180 -16.136  0.00  0.00    -0.000 C 
HETATM    5  C   UNK N   1     -27.347  27.643 -16.661  0.00  0.00    -0.035 C 
HETATM    6  C   UNK N   1     -27.414  33.709 -16.414  0.00  0.00     0.006 C 
HETATM    7  C   UNK N   1     -26.484  34.413 -15.402  0.00  0.00    -0.039 C 
HETATM    8  C   UNK N   1     -25.893  27.064 -16.803  0.00  0.00     0.004 C 
HETATM    9  C   UNK N   1     -25.039  32.316 -15.337  0.00  0.00     0.011 C 
HETATM   10  C   UNK N   1     -24.818  29.210 -15.964  0.00  0.00     0.011 C 
HETATM   11  C   UNK N   1     -28.624  29.956 -16.655  0.00  0.00     0.006 C 
HETATM   12  C   UNK N   1     -28.518  31.445 -17.028  0.00  0.00     0.006 C 
HETATM   13  C   UNK N   1     -25.052  33.848 -15.572  0.00  0.00     0.010 C 
HETATM   14  C   UNK N   1     -24.908  27.686 -15.775  0.00  0.00     0.007 C 
HETATM   15  C   UNK N   1     -28.684  34.583 -16.391  0.00  0.00     0.018 C 
HETATM   16  C   UNK N   1     -25.797  25.475 -16.926  0.00  0.00    -0.017 C 
HETATM   17  C   UNK N   1     -28.197  27.139 -17.905  0.00  0.00     0.012 C 
HETATM   18  C   UNK N   1     -26.571  29.867 -14.278  0.00  0.00     0.016 C 
HETATM   19  C   UNK N   1     -25.504  31.645 -17.722  0.00  0.00     0.016 C 
HETATM   20  C   UNK N   1     -26.635  35.862 -15.874  0.00  0.00     0.010 C 
HETATM   21  C   UNK N   1     -28.149  36.018 -16.111  0.00  0.00     0.010 C 
HETATM   22  C   UNK N   1     -28.057  27.139 -15.366  0.00  0.00     0.016 C 
HETATM   23  C   UNK N   1     -27.021  24.877 -17.735  0.00  0.00     0.126 C 
HETATM   24  C   UNK N   1     -27.598  25.935 -18.681  0.00  0.00     0.033 C 
HETATM   25  C   UNK N   1     -26.929  34.315 -13.904  0.00  0.00     0.015 C 
HETATM   26  C   UNK N   1     -24.498  25.154 -17.724  0.00  0.00     0.018 C 
HETATM   27  C   UNK N   1     -25.656  24.753 -15.562  0.00  0.00     0.018 C 
ENDROOT
BRANCH  15  28
HETATM   28  C   UNK N   1     -29.550  34.504 -17.645  0.00  0.00    -0.089 C 
HETATM   29  C   UNK N   1     -28.917  34.488 -19.020  0.00  0.00     0.043 C 
HETATM   30  C   UNK N   1     -30.890  34.455 -17.533  0.00  0.00     0.014 C 
ENDBRANCH  15  28
BRANCH  23  31
HETATM   31  O   UNK N   1     -28.042  24.405 -16.895  0.00  0.00    -0.395 OA
HETATM   32  H   UNK N   1     -28.700  23.927 -17.464  0.00  0.00     0.210 HD
ENDBRANCH  23  31
TORSDOF 2
ENDMDL
MODEL 3
REMARK VINA RESULT:      -7.5     28.012     33.540
REMARK  2 active torsions:
REMARK  status: ('A' for Active; 'I' for Inactive)
REMARK    1  A    between atoms: O_1  and  C_24 
REMARK    2  A    between atoms: C_16  and  C_27 
ROOT
HETATM    1  C   UNK N   1     -27.192  29.782 -14.909  0.00  0.00    -0.032 C 
HETATM    2  C   UNK N   1     -26.626  31.281 -14.628  0.00  0.00    -0.032 C 
HETATM    3  C   UNK N   1     -26.547  29.236 -16.257  0.00  0.00     0.003 C 
HETATM    4  C   UNK N   1     -26.986  32.195 -15.881  0.00  0.00    -0.000 C 
HETATM    5  C   UNK N   1     -26.745  27.688 -16.601  0.00  0.00    -0.035 C 
HETATM    6  C   UNK N   1     -26.596  33.676 -15.607  0.00  0.00     0.006 C 
HETATM    7  C   UNK N   1     -27.343  34.235 -14.377  0.00  0.00    -0.039 C 
HETATM    8  C   UNK N   1     -26.345  26.858 -15.328  0.00  0.00     0.004 C 
HETATM    9  C   UNK N   1     -27.248  31.919 -13.320  0.00  0.00     0.011 C 
HETATM   10  C   UNK N   1     -26.798  28.805 -13.758  0.00  0.00     0.011 C 
HETATM   11  C   UNK N   1     -26.862  30.189 -17.445  0.00  0.00     0.006 C 
HETATM   12  C   UNK N   1     -26.376  31.624 -17.177  0.00  0.00     0.006 C 
HETATM   13  C   UNK N   1     -26.919  33.422 -13.129  0.00  0.00     0.010 C 
HETATM   14  C   UNK N   1     -27.103  27.327 -14.056  0.00  0.00     0.007 C 
HETATM   15  C   UNK N   1     -26.823  34.760 -16.679  0.00  0.00     0.018 C 
HETATM   16  C   UNK N   1     -26.311  25.274 -15.526  0.00  0.00    -0.017 C 
HETATM   17  C   UNK N   1     -25.742  27.305 -17.770  0.00  0.00     0.012 C 
HETATM   18  C   UNK N   1     -28.762  29.811 -14.972  0.00  0.00     0.016 C 
HETATM   19  C   UNK N   1     -25.061  31.270 -14.393  0.00  0.00     0.016 C 
HETATM   20  C   UNK N   1     -26.817  35.673 -14.384  0.00  0.00     0.010 C 
HETATM   21  C   UNK N   1     -26.889  36.086 -15.866  0.00  0.00     0.010 C 
HETATM   22  C   UNK N   1     -28.191  27.356 -17.089  0.00  0.00     0.016 C 
HETATM   23  C   UNK N   1     -25.815  24.877 -16.978  0.00  0.00     0.126 C 
HETATM   24  C   UNK N   1     -24.941  25.992 -17.562  0.00  0.00     0.033 C 
HETATM   25  C   UNK N   1     -28.904  34.262 -14.498  0.00  0.00     0.015 C 
HETATM   26  C   UNK N   1     -25.285  24.705 -14.501  0.00  0.00     0.018 C 
HETATM   27  C   UNK N   1     -27.661  24.579 -15.216  0.00  0.00     0.018 C 
ENDROOT
BRANCH  15  28
HETATM   28  C   UNK N   1     -25.784  34.797 -17.796  0.00  0.00    -0.089 C 
HETATM   29  C   UNK N   1     -24.318  34.570 -17.494  0.00  0.00     0.043 C 
HETATM   30  C   UNK N   1     -26.167  35.042 -19.062  0.00  0.00     0.014 C 
ENDBRANCH  15  28
BRANCH  23  31
HETATM   31  O   UNK N   1     -26.878  24.618 -17.857  0.00  0.00    -0.395 OA
HETATM   32  H   UNK N   1     -27.190  23.692 -17.682  0.00  0.00     0.210 HD
ENDBRANCH  23  31
TORSDOF 2
ENDMDL
MODEL 4
REMARK VINA RESULT:      -7.2     27.410     32.314
REMARK  2 active torsions:
REMARK  status: ('A' for Active; 'I' for Inactive)
REMARK    1  A    between atoms: O_1  and  C_24 
REMARK    2  A    between atoms: C_16  and  C_27 
ROOT
HETATM    1  C   UNK N   1     -26.582  30.368 -16.665  0.00  0.00    -0.032 C 
HETATM    2  C   UNK N   1     -26.862  28.767 -16.735  0.00  0.00    -0.032 C 
HETATM    3  C   UNK N   1     -25.483  30.744 -17.753  0.00  0.00     0.003 C 
HETATM    4  C   UNK N   1     -25.485  28.007 -16.488  0.00  0.00    -0.000 C 
HETATM    5  C   UNK N   1     -25.236  32.293 -18.053  0.00  0.00    -0.035 C 
HETATM    6  C   UNK N   1     -25.718  26.471 -16.402  0.00  0.00     0.006 C 
HETATM    7  C   UNK N   1     -26.676  26.113 -15.245  0.00  0.00    -0.039 C 
HETATM    8  C   UNK N   1     -26.634  32.962 -18.311  0.00  0.00     0.004 C 
HETATM    9  C   UNK N   1     -27.919  28.298 -15.655  0.00  0.00     0.011 C 
HETATM   10  C   UNK N   1     -27.874  31.182 -16.985  0.00  0.00     0.011 C 
HETATM   11  C   UNK N   1     -24.177  29.931 -17.522  0.00  0.00     0.006 C 
HETATM   12  C   UNK N   1     -24.431  28.414 -17.537  0.00  0.00     0.006 C 
HETATM   13  C   UNK N   1     -28.055  26.759 -15.527  0.00  0.00     0.010 C 
HETATM   14  C   UNK N   1     -27.638  32.693 -17.157  0.00  0.00     0.007 C 
HETATM   15  C   UNK N   1     -24.534  25.507 -16.189  0.00  0.00     0.018 C 
HETATM   16  C   UNK N   1     -26.588  34.481 -18.800  0.00  0.00    -0.017 C 
HETATM   17  C   UNK N   1     -24.384  32.412 -19.388  0.00  0.00     0.012 C 
HETATM   18  C   UNK N   1     -26.135  30.765 -15.211  0.00  0.00     0.016 C 
HETATM   19  C   UNK N   1     -27.472  28.352 -18.135  0.00  0.00     0.016 C 
HETATM   20  C   UNK N   1     -26.674  24.586 -15.368  0.00  0.00     0.010 C 
HETATM   21  C   UNK N   1     -25.189  24.234 -15.577  0.00  0.00     0.010 C 
HETATM   22  C   UNK N   1     -24.441  33.012 -16.918  0.00  0.00     0.016 C 
HETATM   23  C   UNK N   1     -25.340  34.755 -19.738  0.00  0.00     0.126 C 
HETATM   24  C   UNK N   1     -24.894  33.456 -20.418  0.00  0.00     0.033 C 
HETATM   25  C   UNK N   1     -26.176  26.510 -13.815  0.00  0.00     0.015 C 
HETATM   26  C   UNK N   1     -27.877  34.734 -19.637  0.00  0.00     0.018 C 
HETATM   27  C   UNK N   1     -26.618  35.509 -17.640  0.00  0.00     0.018 C 
ENDROOT
BRANCH  15  28
HETATM   28  C   UNK N   1     -23.705  25.210 -17.435  0.00  0.00    -0.089 C 
HETATM   29  C   UNK N   1     -22.195  25.299 -17.397  0.00  0.00     0.043 C 
HETATM   30  C   UNK N   1     -24.318  24.872 -18.584  0.00  0.00     0.014 C 
ENDBRANCH  15  28
BRANCH  23  31
HETATM   31  O   UNK N   1     -24.254  35.307 -19.041  0.00  0.00    -0.395 OA
HETATM   32  H   UNK N   1     -24.621  35.808 -18.266  0.00  0.00     0.210 HD
ENDBRANCH  23  31
TORSDOF 2
ENDMDL
MODEL 5
REMARK VINA RESULT:      -7.1     27.533     30.133
REMARK  2 active torsions:
REMARK  status: ('A' for Active; 'I' for Inactive)
REMARK    1  A    between atoms: O_1  and  C_24 
REMARK    2  A    between atoms: C_16  and  C_27 
ROOT
HETATM    1  C   UNK N   1     -24.728  27.336 -16.921  0.00  0.00    -0.032 C 
HETATM    2  C   UNK N   1     -23.150  27.227 -16.538  0.00  0.00    -0.032 C 
HETATM    3  C   UNK N   1     -25.569  27.508 -15.581  0.00  0.00     0.003 C 
HETATM    4  C   UNK N   1     -22.960  25.996 -15.545  0.00  0.00    -0.000 C 
HETATM    5  C   UNK N   1     -27.111  27.901 -15.718  0.00  0.00    -0.035 C 
HETATM    6  C   UNK N   1     -21.450  25.755 -15.258  0.00  0.00     0.006 C 
HETATM    7  C   UNK N   1     -20.675  25.445 -16.557  0.00  0.00    -0.039 C 
HETATM    8  C   UNK N   1     -27.209  29.133 -16.688  0.00  0.00     0.004 C 
HETATM    9  C   UNK N   1     -22.240  27.013 -17.814  0.00  0.00     0.011 C 
HETATM   10  C   UNK N   1     -25.005  28.577 -17.825  0.00  0.00     0.011 C 
HETATM   11  C   UNK N   1     -25.305  26.325 -14.607  0.00  0.00     0.006 C 
HETATM   12  C   UNK N   1     -23.810  26.176 -14.271  0.00  0.00     0.006 C 
HETATM   13  C   UNK N   1     -20.762  26.678 -17.490  0.00  0.00     0.010 C 
HETATM   14  C   UNK N   1     -26.499  28.873 -18.044  0.00  0.00     0.007 C 
HETATM   15  C   UNK N   1     -21.002  24.631 -14.303  0.00  0.00     0.018 C 
HETATM   16  C   UNK N   1     -28.660  29.786 -16.821  0.00  0.00    -0.017 C 
HETATM   17  C   UNK N   1     -27.638  28.358 -14.291  0.00  0.00     0.012 C 
HETATM   18  C   UNK N   1     -25.166  26.064 -17.735  0.00  0.00     0.016 C 
HETATM   19  C   UNK N   1     -22.630  28.560 -15.862  0.00  0.00     0.016 C 
HETATM   20  C   UNK N   1     -19.278  25.209 -15.976  0.00  0.00     0.010 C 
HETATM   21  C   UNK N   1     -19.536  24.332 -14.736  0.00  0.00     0.010 C 
HETATM   22  C   UNK N   1     -28.001  26.708 -16.191  0.00  0.00     0.016 C 
HETATM   23  C   UNK N   1     -29.454  29.731 -15.451  0.00  0.00     0.126 C 
HETATM   24  C   UNK N   1     -28.475  29.666 -14.274  0.00  0.00     0.033 C 
HETATM   25  C   UNK N   1     -21.135  24.158 -17.319  0.00  0.00     0.015 C 
HETATM   26  C   UNK N   1     -28.457  31.285 -17.192  0.00  0.00     0.018 C 
HETATM   27  C   UNK N   1     -29.517  29.172 -17.958  0.00  0.00     0.018 C 
ENDROOT
BRANCH  15  28
HETATM   28  C   UNK N   1     -21.130  24.950 -12.817  0.00  0.00    -0.089 C 
HETATM   29  C   UNK N   1     -20.620  26.263 -12.263  0.00  0.00     0.043 C 
HETATM   30  C   UNK N   1     -21.695  24.057 -11.985  0.00  0.00     0.014 C 
ENDBRANCH  15  28
BRANCH  23  31
HETATM   31  O   UNK N   1     -30.331  28.637 -15.381  0.00  0.00    -0.395 OA
HETATM   32  H   UNK N   1     -30.744  28.643 -14.478  0.00  0.00     0.210 HD
ENDBRANCH  23  31
TORSDOF 2
ENDMDL
MODEL 6
REMARK VINA RESULT:      -7.1     27.343     32.977
REMARK  2 active torsions:
REMARK  status: ('A' for Active; 'I' for Inactive)
REMARK    1  A    between atoms: O_1  and  C_24 
REMARK    2  A    between atoms: C_16  and  C_27 
ROOT
HETATM    1  C   UNK N   1     -26.151  29.021 -16.283  0.00  0.00    -0.032 C 
HETATM    2  C   UNK N   1     -26.354  30.636 -16.272  0.00  0.00    -0.032 C 
HETATM    3  C   UNK N   1     -24.679  28.695 -16.793  0.00  0.00     0.003 C 
HETATM    4  C   UNK N   1     -26.091  31.184 -17.743  0.00  0.00    -0.000 C 
HETATM    5  C   UNK N   1     -24.156  27.193 -16.639  0.00  0.00    -0.035 C 
HETATM    6  C   UNK N   1     -26.412  32.704 -17.825  0.00  0.00     0.006 C 
HETATM    7  C   UNK N   1     -27.887  32.986 -17.466  0.00  0.00    -0.039 C 
HETATM    8  C   UNK N   1     -24.427  26.739 -15.159  0.00  0.00     0.004 C 
HETATM    9  C   UNK N   1     -27.811  31.050 -15.813  0.00  0.00     0.011 C 
HETATM   10  C   UNK N   1     -26.307  28.422 -14.851  0.00  0.00     0.011 C 
HETATM   11  C   UNK N   1     -24.435  29.305 -18.203  0.00  0.00     0.006 C 
HETATM   12  C   UNK N   1     -24.670  30.825 -18.222  0.00  0.00     0.006 C 
HETATM   13  C   UNK N   1     -28.130  32.555 -15.999  0.00  0.00     0.010 C 
HETATM   14  C   UNK N   1     -25.911  26.940 -14.744  0.00  0.00     0.007 C 
HETATM   15  C   UNK N   1     -26.215  33.479 -19.143  0.00  0.00     0.018 C 
HETATM   16  C   UNK N   1     -23.819  25.319 -14.756  0.00  0.00    -0.017 C 
HETATM   17  C   UNK N   1     -22.586  27.185 -16.873  0.00  0.00     0.012 C 
HETATM   18  C   UNK N   1     -27.251  28.354 -17.186  0.00  0.00     0.016 C 
HETATM   19  C   UNK N   1     -25.371  31.331 -15.246  0.00  0.00     0.016 C 
HETATM   20  C   UNK N   1     -27.921  34.502 -17.677  0.00  0.00     0.010 C 
HETATM   21  C   UNK N   1     -27.160  34.708 -19.001  0.00  0.00     0.010 C 
HETATM   22  C   UNK N   1     -24.795  26.220 -17.679  0.00  0.00     0.016 C 
HETATM   23  C   UNK N   1     -22.432  25.052 -15.475  0.00  0.00     0.126 C 
HETATM   24  C   UNK N   1     -21.758  26.380 -15.835  0.00  0.00     0.033 C 
HETATM   25  C   UNK N   1     -28.944  32.316 -18.408  0.00  0.00     0.015 C 
HETATM   26  C   UNK N   1     -23.559  25.350 -13.220  0.00  0.00     0.018 C 
HETATM   27  C   UNK N   1     -24.786  24.134 -15.006  0.00  0.00     0.018 C 
ENDROOT
BRANCH  15  28
HETATM   28  C   UNK N   1     -24.774  33.868 -19.459  0.00  0.00    -0.089 C 
HETATM   29  C   UNK N   1     -24.168  33.549 -20.809  0.00  0.00     0.043 C 
HETATM   30  C   UNK N   1     -24.029  34.496 -18.531  0.00  0.00     0.014 C 
ENDBRANCH  15  28
BRANCH  23  31
HETATM   31  O   UNK N   1     -22.571  24.276 -16.638  0.00  0.00    -0.395 OA
HETATM   32  H   UNK N   1     -23.523  24.004 -16.703  0.00  0.00     0.210 HD
ENDBRANCH  23  31
TORSDOF 2
ENDMDL
MODEL 7
REMARK VINA RESULT:      -7.0     28.219     33.676
REMARK  2 active torsions:
REMARK  status: ('A' for Active; 'I' for Inactive)
REMARK    1  A    between atoms: O_1  and  C_24 
REMARK    2  A    between atoms: C_16  and  C_27 
ROOT
HETATM    1  C   UNK N   1     -25.213  29.713 -15.150  0.00  0.00    -0.032 C 
HETATM    2  C   UNK N   1     -25.496  31.279 -14.814  0.00  0.00    -0.032 C 
HETATM    3  C   UNK N   1     -24.455  29.618 -16.546  0.00  0.00     0.003 C 
HETATM    4  C   UNK N   1     -26.350  31.901 -16.005  0.00  0.00    -0.000 C 
HETATM    5  C   UNK N   1     -23.837  28.205 -16.961  0.00  0.00    -0.035 C 
HETATM    6  C   UNK N   1     -26.773  33.360 -15.670  0.00  0.00     0.006 C 
HETATM    7  C   UNK N   1     -27.632  33.414 -14.388  0.00  0.00    -0.039 C 
HETATM    8  C   UNK N   1     -22.992  27.675 -15.746  0.00  0.00     0.004 C 
HETATM    9  C   UNK N   1     -26.285  31.465 -13.454  0.00  0.00     0.011 C 
HETATM   10  C   UNK N   1     -24.304  29.058 -14.064  0.00  0.00     0.011 C 
HETATM   11  C   UNK N   1     -25.287  30.296 -17.672  0.00  0.00     0.006 C 
HETATM   12  C   UNK N   1     -25.606  31.766 -17.349  0.00  0.00     0.006 C 
HETATM   13  C   UNK N   1     -26.777  32.912 -13.198  0.00  0.00     0.010 C 
HETATM   14  C   UNK N   1     -23.811  27.646 -14.427  0.00  0.00     0.007 C 
HETATM   15  C   UNK N   1     -27.591  34.192 -16.678  0.00  0.00     0.018 C 
HETATM   16  C   UNK N   1     -22.149  26.348 -16.025  0.00  0.00    -0.017 C 
HETATM   17  C   UNK N   1     -22.848  28.432 -18.182  0.00  0.00     0.012 C 
HETATM   18  C   UNK N   1     -26.569  28.918 -15.157  0.00  0.00     0.016 C 
HETATM   19  C   UNK N   1     -24.144  32.081 -14.634  0.00  0.00     0.016 C 
HETATM   20  C   UNK N   1     -27.933  34.915 -14.340  0.00  0.00     0.010 C 
HETATM   21  C   UNK N   1     -28.293  35.266 -15.796  0.00  0.00     0.010 C 
HETATM   22  C   UNK N   1     -24.923  27.178 -17.414  0.00  0.00     0.016 C 
HETATM   23  C   UNK N   1     -21.601  26.305 -17.512  0.00  0.00     0.126 C 
HETATM   24  C   UNK N   1     -21.470  27.727 -18.068  0.00  0.00     0.033 C 
HETATM   25  C   UNK N   1     -28.982  32.624 -14.453  0.00  0.00     0.015 C 
HETATM   26  C   UNK N   1     -20.921  26.374 -15.067  0.00  0.00     0.018 C 
HETATM   27  C   UNK N   1     -22.920  25.042 -15.704  0.00  0.00     0.018 C 
ENDROOT
BRANCH  15  28
HETATM   28  C   UNK N   1     -26.789  34.795 -17.826  0.00  0.00    -0.089 C 
HETATM   29  C   UNK N   1     -27.252  34.637 -19.258  0.00  0.00     0.043 C 
HETATM   30  C   UNK N   1     -25.653  35.469 -17.570  0.00  0.00     0.014 C 
ENDBRANCH  15  28
BRANCH  23  31
HETATM   31  O   UNK N   1     -22.421  25.551 -18.366  0.00  0.00    -0.395 OA
HETATM   32  H   UNK N   1     -22.026  25.596 -19.276  0.00  0.00     0.210 HD
ENDBRANCH  23  31
TORSDOF 2
ENDMDL
MODEL 8
REMARK VINA RESULT:      -7.0     27.565     32.187
REMARK  2 active torsions:
REMARK  status: ('A' for Active; 'I' for Inactive)
REMARK    1  A    between atoms: O_1  and  C_24 
REMARK    2  A    between atoms: C_16  and  C_27 
ROOT
HETATM    1  C   UNK N   1     -28.394  29.577 -16.865  0.00  0.00    -0.032 C 
HETATM    2  C   UNK N   1     -27.324  28.396 -17.194  0.00  0.00    -0.032 C 
HETATM    3  C   UNK N   1     -27.663  30.708 -16.018  0.00  0.00     0.003 C 
HETATM    4  C   UNK N   1     -26.753  27.841 -15.815  0.00  0.00    -0.000 C 
HETATM    5  C   UNK N   1     -28.435  32.090 -15.803  0.00  0.00    -0.035 C 
HETATM    6  C   UNK N   1     -25.832  26.611 -16.062  0.00  0.00     0.006 C 
HETATM    7  C   UNK N   1     -26.600  25.466 -16.757  0.00  0.00    -0.039 C 
HETATM    8  C   UNK N   1     -28.941  32.581 -17.207  0.00  0.00     0.004 C 
HETATM    9  C   UNK N   1     -27.980  27.205 -18.004  0.00  0.00     0.011 C 
HETATM   10  C   UNK N   1     -28.933  30.231 -18.176  0.00  0.00     0.011 C 
HETATM   11  C   UNK N   1     -27.058  30.116 -14.713  0.00  0.00     0.006 C 
HETATM   12  C   UNK N   1     -26.079  28.964 -15.002  0.00  0.00     0.006 C 
HETATM   13  C   UNK N   1     -27.071  25.959 -18.148  0.00  0.00     0.010 C 
HETATM   14  C   UNK N   1     -29.775  31.498 -17.945  0.00  0.00     0.007 C 
HETATM   15  C   UNK N   1     -25.134  25.903 -14.884  0.00  0.00     0.018 C 
HETATM   16  C   UNK N   1     -29.592  34.039 -17.229  0.00  0.00    -0.017 C 
HETATM   17  C   UNK N   1     -27.398  33.161 -15.256  0.00  0.00     0.012 C 
HETATM   18  C   UNK N   1     -29.632  28.976 -16.106  0.00  0.00     0.016 C 
HETATM   19  C   UNK N   1     -26.142  28.928 -18.101  0.00  0.00     0.016 C 
HETATM   20  C   UNK N   1     -25.492  24.410 -16.819  0.00  0.00     0.010 C 
HETATM   21  C   UNK N   1     -24.844  24.472 -15.423  0.00  0.00     0.010 C 
HETATM   22  C   UNK N   1     -29.595  31.981 -14.764  0.00  0.00     0.016 C 
HETATM   23  C   UNK N   1     -28.876  35.015 -16.207  0.00  0.00     0.126 C 
HETATM   24  C   UNK N   1     -27.439  34.549 -15.949  0.00  0.00     0.033 C 
HETATM   25  C   UNK N   1     -27.811  24.887 -15.951  0.00  0.00     0.015 C 
HETATM   26  C   UNK N   1     -29.383  34.614 -18.661  0.00  0.00     0.018 C 
HETATM   27  C   UNK N   1     -31.123  34.040 -16.983  0.00  0.00     0.018 C 
ENDROOT
BRANCH  15  28
HETATM   28  C   UNK N   1     -23.888  26.603 -14.351  0.00  0.00    -0.089 C 
HETATM   29  C   UNK N   1     -22.833  27.129 -15.300  0.00  0.00     0.043 C 
HETATM   30  C   UNK N   1     -23.716  26.751 -13.025  0.00  0.00     0.014 C 
ENDBRANCH  15  28
BRANCH  23  31
HETATM   31  O   UNK N   1     -29.557  35.105 -14.982  0.00  0.00    -0.395 OA
HETATM   32  H   UNK N   1     -29.835  36.051 -14.865  0.00  0.00     0.210 HD
ENDBRANCH  23  31
TORSDOF 2
ENDMDL
MODEL 9
REMARK VINA RESULT:      -6.9     27.749     33.221
REMARK  2 active torsions:
REMARK  status: ('A' for Active; 'I' for Inactive)
REMARK    1  A    between atoms: O_1  and  C_24 
REMARK    2  A    between atoms: C_16  and  C_27 
ROOT
HETATM    1  C   UNK N   1     -28.170  29.211 -16.618  0.00  0.00    -0.032 C 
HETATM    2  C   UNK N   1     -29.065  30.481 -16.135  0.00  0.00    -0.032 C 
HETATM    3  C   UNK N   1     -26.747  29.289 -15.911  0.00  0.00     0.003 C 
HETATM    4  C   UNK N   1     -28.281  31.816 -16.505  0.00  0.00    -0.000 C 
HETATM    5  C   UNK N   1     -25.791  28.014 -16.022  0.00  0.00    -0.035 C 
HETATM    6  C   UNK N   1     -29.155  33.066 -16.196  0.00  0.00     0.006 C 
HETATM    7  C   UNK N   1     -30.471  33.044 -17.004  0.00  0.00    -0.039 C 
HETATM    8  C   UNK N   1     -26.630  26.748 -15.617  0.00  0.00     0.004 C 
HETATM    9  C   UNK N   1     -30.490  30.503 -16.824  0.00  0.00     0.011 C 
HETATM   10  C   UNK N   1     -28.837  27.861 -16.208  0.00  0.00     0.011 C 
HETATM   11  C   UNK N   1     -26.041  30.635 -16.239  0.00  0.00     0.006 C 
HETATM   12  C   UNK N   1     -26.895  31.849 -15.832  0.00  0.00     0.006 C 
HETATM   13  C   UNK N   1     -31.294  31.804 -16.575  0.00  0.00     0.010 C 
HETATM   14  C   UNK N   1     -27.946  26.627 -16.432  0.00  0.00     0.007 C 
HETATM   15  C   UNK N   1     -28.611  34.486 -16.446  0.00  0.00     0.018 C 
HETATM   16  C   UNK N   1     -25.803  25.387 -15.499  0.00  0.00    -0.017 C 
HETATM   17  C   UNK N   1     -24.615  28.179 -14.969  0.00  0.00     0.012 C 
HETATM   18  C   UNK N   1     -28.053  29.211 -18.186  0.00  0.00     0.016 C 
HETATM   19  C   UNK N   1     -29.346  30.426 -14.579  0.00  0.00     0.016 C 
HETATM   20  C   UNK N   1     -31.077  34.374 -16.550  0.00  0.00     0.010 C 
HETATM   21  C   UNK N   1     -29.892  35.357 -16.601  0.00  0.00     0.010 C 
HETATM   22  C   UNK N   1     -25.145  27.863 -17.435  0.00  0.00     0.016 C 
HETATM   23  C   UNK N   1     -24.340  25.639 -14.944  0.00  0.00     0.126 C 
HETATM   24  C   UNK N   1     -24.304  26.924 -14.110  0.00  0.00     0.033 C 
HETATM   25  C   UNK N   1     -30.300  33.066 -18.560  0.00  0.00     0.015 C 
HETATM   26  C   UNK N   1     -26.550  24.482 -14.475  0.00  0.00     0.018 C 
HETATM   27  C   UNK N   1     -25.739  24.582 -16.822  0.00  0.00     0.018 C 
ENDROOT
BRANCH  15  28
HETATM   28  C   UNK N   1     -27.657  35.014 -15.380  0.00  0.00    -0.089 C 
HETATM   29  C   UNK N   1     -27.941  34.789 -13.910  0.00  0.00     0.043 C 
HETATM   30  C   UNK N   1     -26.553  35.693 -15.743  0.00  0.00     0.014 C 
ENDBRANCH  15  28
BRANCH  23  31
HETATM   31  O   UNK N   1     -23.384  25.729 -15.969  0.00  0.00    -0.395 OA
HETATM   32  H   UNK N   1     -23.875  25.827 -16.826  0.00  0.00     0.210 HD
ENDBRANCH  23  31
TORSDOF 2
ENDMDL
