MODEL 1
REMARK VINA RESULT:      -7.7      0.000      0.000
REMARK  4 active torsions:
REMARK  status: ('A' for Active; 'I' for Inactive)
REMARK    1  A    between atoms: O_3  and  C_12 
REMARK    2  A    between atoms: O_4  and  C_17 
REMARK    3  A    between atoms: O_5  and  C_20 
REMARK    4  A    between atoms: C_6  and  C_8 
ROOT
HETATM    1  O   UNK N   1     -16.991  20.895 -11.134  0.00  0.00    -0.340 OA
HETATM    2  O   UNK N   1     -19.119  22.502  -8.141  0.00  0.00    -0.292 OA
HETATM    3  C   UNK N   1     -18.230  21.444 -11.432  0.00  0.00     0.169 C 
HETATM    4  C   UNK N   1     -18.568  22.566 -10.437  0.00  0.00     0.121 C 
HETATM    5  C   UNK N   1     -17.452  20.946  -8.781  0.00  0.00     0.076 A 
HETATM    6  C   UNK N   1     -18.454  22.016  -9.043  0.00  0.00     0.167 C 
HETATM    7  C   UNK N   1     -16.721  20.447  -9.880  0.00  0.00     0.089 A 
HETATM    8  C   UNK N   1     -17.207  20.437  -7.491  0.00  0.00     0.085 A 
HETATM    9  C   UNK N   1     -15.732  19.476  -9.686  0.00  0.00     0.074 A 
HETATM   10  C   UNK N   1     -16.230  19.449  -7.313  0.00  0.00     0.074 A 
HETATM   11  C   UNK N   1     -15.489  18.973  -8.403  0.00  0.00     0.071 A 
ENDROOT
BRANCH   3  12
HETATM   12  C   UNK N   1     -18.271  21.928 -12.856  0.00  0.00    -0.028 A 
HETATM   13  C   UNK N   1     -19.037  23.057 -13.192  0.00  0.00     0.012 A 
HETATM   14  C   UNK N   1     -19.068  23.520 -14.510  0.00  0.00     0.037 A 
HETATM   15  C   UNK N   1     -18.333  22.863 -15.501  0.00  0.00     0.065 A 
HETATM   16  C   UNK N   1     -17.571  21.734 -15.171  0.00  0.00     0.037 A 
HETATM   17  C   UNK N   1     -17.543  21.265 -13.857  0.00  0.00     0.012 A 
BRANCH  15  18
HETATM   18  O   UNK N   1     -18.362  23.321 -16.768  0.00  0.00    -0.361 OA
HETATM   19  H   UNK N   1     -18.871  24.109 -17.009  0.00  0.00     0.217 HD
ENDBRANCH  15  18
ENDBRANCH   3  12
BRANCH   8  20
HETATM   20  O   UNK N   1     -17.906  20.890  -6.430  0.00  0.00    -0.360 OA
HETATM   21  H   UNK N   1     -18.849  21.096  -6.493  0.00  0.00     0.217 HD
ENDBRANCH   8  20
BRANCH  11  22
HETATM   22  O   UNK N   1     -14.548  18.025  -8.225  0.00  0.00    -0.361 OA
HETATM   23  H   UNK N   1     -14.458  17.284  -8.843  0.00  0.00     0.217 HD
ENDBRANCH  11  22
TORSDOF 4
ENDMDL
MODEL 2
REMARK VINA RESULT:      -7.5      1.737      6.672
REMARK  4 active torsions:
REMARK  status: ('A' for Active; 'I' for Inactive)
REMARK    1  A    between atoms: O_3  and  C_12 
REMARK    2  A    between atoms: O_4  and  C_17 
REMARK    3  A    between atoms: O_5  and  C_20 
REMARK    4  A    between atoms: C_6  and  C_8 
ROOT
HETATM    1  O   UNK N   1     -18.008  22.041 -12.104  0.00  0.00    -0.340 OA
HETATM    2  O   UNK N   1     -20.511  24.964 -10.982  0.00  0.00    -0.292 OA
HETATM    3  C   UNK N   1     -17.903  22.534 -10.811  0.00  0.00     0.169 C 
HETATM    4  C   UNK N   1     -19.263  23.067 -10.333  0.00  0.00     0.121 C 
HETATM    5  C   UNK N   1     -19.400  23.877 -12.769  0.00  0.00     0.076 A 
HETATM    6  C   UNK N   1     -19.762  24.067 -11.338  0.00  0.00     0.167 C 
HETATM    7  C   UNK N   1     -18.535  22.810 -13.093  0.00  0.00     0.089 A 
HETATM    8  C   UNK N   1     -19.898  24.707 -13.793  0.00  0.00     0.085 A 
HETATM    9  C   UNK N   1     -18.201  22.554 -14.427  0.00  0.00     0.074 A 
HETATM   10  C   UNK N   1     -19.538  24.453 -15.123  0.00  0.00     0.074 A 
HETATM   11  C   UNK N   1     -18.698  23.378 -15.443  0.00  0.00     0.071 A 
ENDROOT
BRANCH   3  12
HETATM   12  C   UNK N   1     -17.354  21.484  -9.883  0.00  0.00    -0.028 A 
HETATM   13  C   UNK N   1     -17.799  21.424  -8.551  0.00  0.00     0.012 A 
HETATM   14  C   UNK N   1     -17.304  20.443  -7.688  0.00  0.00     0.037 A 
HETATM   15  C   UNK N   1     -16.367  19.513  -8.147  0.00  0.00     0.065 A 
HETATM   16  C   UNK N   1     -15.919  19.571  -9.474  0.00  0.00     0.037 A 
HETATM   17  C   UNK N   1     -16.405  20.554 -10.336  0.00  0.00     0.012 A 
BRANCH  15  18
HETATM   18  O   UNK N   1     -15.902  18.564  -7.310  0.00  0.00    -0.361 OA
HETATM   19  H   UNK N   1     -16.440  17.798  -7.066  0.00  0.00     0.217 HD
ENDBRANCH  15  18
ENDBRANCH   3  12
BRANCH   8  20
HETATM   20  O   UNK N   1     -20.714  25.741 -13.503  0.00  0.00    -0.360 OA
HETATM   21  H   UNK N   1     -21.415  26.020 -14.108  0.00  0.00     0.217 HD
ENDBRANCH   8  20
BRANCH  11  22
HETATM   22  O   UNK N   1     -18.358  23.137 -16.724  0.00  0.00    -0.361 OA
HETATM   23  H   UNK N   1     -18.972  22.701 -17.333  0.00  0.00     0.217 HD
ENDBRANCH  11  22
TORSDOF 4
ENDMDL
MODEL 3
REMARK VINA RESULT:      -7.2      1.996      4.056
REMARK  4 active torsions:
REMARK  status: ('A' for Active; 'I' for Inactive)
REMARK    1  A    between atoms: O_3  and  C_12 
REMARK    2  A    between atoms: O_4  and  C_17 
REMARK    3  A    between atoms: O_5  and  C_20 
REMARK    4  A    between atoms: C_6  and  C_8 
ROOT
HETATM    1  O   UNK N   1     -17.587  19.827  -8.078  0.00  0.00    -0.340 OA
HETATM    2  O   UNK N   1     -13.902  18.251  -8.023  0.00  0.00    -0.292 OA
HETATM    3  C   UNK N   1     -16.619  20.394  -8.894  0.00  0.00     0.169 C 
HETATM    4  C   UNK N   1     -15.572  19.341  -9.289  0.00  0.00     0.121 C 
HETATM    5  C   UNK N   1     -15.935  18.588  -6.858  0.00  0.00     0.076 A 
HETATM    6  C   UNK N   1     -15.032  18.713  -8.034  0.00  0.00     0.167 C 
HETATM    7  C   UNK N   1     -17.229  19.144  -6.959  0.00  0.00     0.089 A 
HETATM    8  C   UNK N   1     -15.550  17.931  -5.673  0.00  0.00     0.085 A 
HETATM    9  C   UNK N   1     -18.136  19.014  -5.903  0.00  0.00     0.074 A 
HETATM   10  C   UNK N   1     -16.462  17.825  -4.614  0.00  0.00     0.074 A 
HETATM   11  C   UNK N   1     -17.752  18.358  -4.727  0.00  0.00     0.071 A 
ENDROOT
BRANCH   3  12
HETATM   12  C   UNK N   1     -17.249  21.037 -10.101  0.00  0.00    -0.028 A 
HETATM   13  C   UNK N   1     -17.650  22.383 -10.049  0.00  0.00     0.012 A 
HETATM   14  C   UNK N   1     -18.223  22.990 -11.169  0.00  0.00     0.037 A 
HETATM   15  C   UNK N   1     -18.394  22.262 -12.351  0.00  0.00     0.065 A 
HETATM   16  C   UNK N   1     -17.997  20.918 -12.406  0.00  0.00     0.037 A 
HETATM   17  C   UNK N   1     -17.432  20.307 -11.286  0.00  0.00     0.012 A 
BRANCH  15  18
HETATM   18  O   UNK N   1     -18.938  22.858 -13.430  0.00  0.00    -0.361 OA
HETATM   19  H   UNK N   1     -18.474  22.889 -14.278  0.00  0.00     0.217 HD
ENDBRANCH  15  18
ENDBRANCH   3  12
BRANCH   8  20
HETATM   20  O   UNK N   1     -14.313  17.406  -5.550  0.00  0.00    -0.360 OA
HETATM   21  H   UNK N   1     -14.135  16.657  -4.963  0.00  0.00     0.217 HD
ENDBRANCH   8  20
BRANCH  11  22
HETATM   22  O   UNK N   1     -18.626  18.251  -3.707  0.00  0.00    -0.361 OA
HETATM   23  H   UNK N   1     -19.203  17.478  -3.618  0.00  0.00     0.217 HD
ENDBRANCH  11  22
TORSDOF 4
ENDMDL
MODEL 4
REMARK VINA RESULT:      -7.2      1.730      3.148
REMARK  4 active torsions:
REMARK  status: ('A' for Active; 'I' for Inactive)
REMARK    1  A    between atoms: O_3  and  C_12 
REMARK    2  A    between atoms: O_4  and  C_17 
REMARK    3  A    between atoms: O_5  and  C_20 
REMARK    4  A    between atoms: C_6  and  C_8 
ROOT
HETATM    1  O   UNK N   1     -18.629  22.295  -9.884  0.00  0.00    -0.340 OA
HETATM    2  O   UNK N   1     -15.890  19.721 -11.275  0.00  0.00    -0.292 OA
HETATM    3  C   UNK N   1     -17.984  22.603 -11.073  0.00  0.00     0.169 C 
HETATM    4  C   UNK N   1     -17.552  21.316 -11.794  0.00  0.00     0.121 C 
HETATM    5  C   UNK N   1     -17.044  20.565  -9.388  0.00  0.00     0.076 A 
HETATM    6  C   UNK N   1     -16.734  20.490 -10.841  0.00  0.00     0.167 C 
HETATM    7  C   UNK N   1     -18.040  21.475  -8.974  0.00  0.00     0.089 A 
HETATM    8  C   UNK N   1     -16.396  19.758  -8.432  0.00  0.00     0.085 A 
HETATM    9  C   UNK N   1     -18.407  21.553  -7.627  0.00  0.00     0.074 A 
HETATM   10  C   UNK N   1     -16.758  19.861  -7.082  0.00  0.00     0.074 A 
HETATM   11  C   UNK N   1     -17.764  20.749  -6.678  0.00  0.00     0.071 A 
ENDROOT
BRANCH   3  12
HETATM   12  C   UNK N   1     -18.855  23.468 -11.944  0.00  0.00    -0.028 A 
HETATM   13  C   UNK N   1     -19.624  24.493 -11.368  0.00  0.00     0.012 A 
HETATM   14  C   UNK N   1     -20.424  25.309 -12.173  0.00  0.00     0.037 A 
HETATM   15  C   UNK N   1     -20.460  25.111 -13.557  0.00  0.00     0.065 A 
HETATM   16  C   UNK N   1     -19.696  24.087 -14.134  0.00  0.00     0.037 A 
HETATM   17  C   UNK N   1     -18.902  23.266 -13.332  0.00  0.00     0.012 A 
BRANCH  15  18
HETATM   18  O   UNK N   1     -21.227  25.907 -14.326  0.00  0.00    -0.361 OA
HETATM   19  H   UNK N   1     -22.037  26.312 -13.984  0.00  0.00     0.217 HD
ENDBRANCH  15  18
ENDBRANCH   3  12
BRANCH   8  20
HETATM   20  O   UNK N   1     -15.432  18.892  -8.805  0.00  0.00    -0.360 OA
HETATM   21  H   UNK N   1     -14.520  19.180  -8.956  0.00  0.00     0.217 HD
ENDBRANCH   8  20
BRANCH  11  22
HETATM   22  O   UNK N   1     -18.110  20.842  -5.380  0.00  0.00    -0.361 OA
HETATM   23  H   UNK N   1     -18.039  20.080  -4.785  0.00  0.00     0.217 HD
ENDBRANCH  11  22
TORSDOF 4
ENDMDL
MODEL 5
REMARK VINA RESULT:      -7.1      2.145      7.426
REMARK  4 active torsions:
REMARK  status: ('A' for Active; 'I' for Inactive)
REMARK    1  A    between atoms: O_3  and  C_12 
REMARK    2  A    between atoms: O_4  and  C_17 
REMARK    3  A    between atoms: O_5  and  C_20 
REMARK    4  A    between atoms: C_6  and  C_8 
ROOT
HETATM    1  O   UNK N   1     -17.433  21.080  -8.586  0.00  0.00    -0.340 OA
HETATM    2  O   UNK N   1     -16.026  19.499 -11.990  0.00  0.00    -0.292 OA
HETATM    3  C   UNK N   1     -16.853  19.821  -8.533  0.00  0.00     0.169 C 
HETATM    4  C   UNK N   1     -15.802  19.672  -9.645  0.00  0.00     0.121 C 
HETATM    5  C   UNK N   1     -17.546  21.007 -10.981  0.00  0.00     0.076 A 
HETATM    6  C   UNK N   1     -16.452  19.999 -10.960  0.00  0.00     0.167 C 
HETATM    7  C   UNK N   1     -17.973  21.541  -9.746  0.00  0.00     0.089 A 
HETATM    8  C   UNK N   1     -18.150  21.447 -12.176  0.00  0.00     0.085 A 
HETATM    9  C   UNK N   1     -18.964  22.527  -9.708  0.00  0.00     0.074 A 
HETATM   10  C   UNK N   1     -19.156  22.420 -12.123  0.00  0.00     0.074 A 
HETATM   11  C   UNK N   1     -19.560  22.965 -10.897  0.00  0.00     0.071 A 
ENDROOT
BRANCH   3  12
HETATM   12  C   UNK N   1     -16.269  19.559  -7.171  0.00  0.00    -0.028 A 
HETATM   13  C   UNK N   1     -15.178  18.685  -7.033  0.00  0.00     0.012 A 
HETATM   14  C   UNK N   1     -14.621  18.448  -5.773  0.00  0.00     0.037 A 
HETATM   15  C   UNK N   1     -15.145  19.086  -4.644  0.00  0.00     0.065 A 
HETATM   16  C   UNK N   1     -16.235  19.957  -4.778  0.00  0.00     0.037 A 
HETATM   17  C   UNK N   1     -16.798  20.189  -6.034  0.00  0.00     0.012 A 
BRANCH  15  18
HETATM   18  O   UNK N   1     -14.596  18.859  -3.435  0.00  0.00    -0.361 OA
HETATM   19  H   UNK N   1     -14.324  19.588  -2.858  0.00  0.00     0.217 HD
ENDBRANCH  15  18
ENDBRANCH   3  12
BRANCH   8  20
HETATM   20  O   UNK N   1     -17.767  20.939 -13.365  0.00  0.00    -0.360 OA
HETATM   21  H   UNK N   1     -17.273  21.467 -14.008  0.00  0.00     0.217 HD
ENDBRANCH   8  20
BRANCH  11  22
HETATM   22  O   UNK N   1     -20.526  23.903 -10.852  0.00  0.00    -0.361 OA
HETATM   23  H   UNK N   1     -20.310  24.843 -10.766  0.00  0.00     0.217 HD
ENDBRANCH  11  22
TORSDOF 4
ENDMDL
MODEL 6
REMARK VINA RESULT:      -7.1      1.881      7.592
REMARK  4 active torsions:
REMARK  status: ('A' for Active; 'I' for Inactive)
REMARK    1  A    between atoms: O_3  and  C_12 
REMARK    2  A    between atoms: O_4  and  C_17 
REMARK    3  A    between atoms: O_5  and  C_20 
REMARK    4  A    between atoms: C_6  and  C_8 
ROOT
HETATM    1  O   UNK N   1     -18.958  23.324 -12.472  0.00  0.00    -0.340 OA
HETATM    2  O   UNK N   1     -17.751  21.713 -15.938  0.00  0.00    -0.292 OA
HETATM    3  C   UNK N   1     -18.603  21.982 -12.483  0.00  0.00     0.169 C 
HETATM    4  C   UNK N   1     -17.564  21.716 -13.584  0.00  0.00     0.121 C 
HETATM    5  C   UNK N   1     -19.018  23.402 -14.868  0.00  0.00     0.076 A 
HETATM    6  C   UNK N   1     -18.113  22.221 -14.889  0.00  0.00     0.167 C 
HETATM    7  C   UNK N   1     -19.380  23.933 -13.612  0.00  0.00     0.089 A 
HETATM    8  C   UNK N   1     -19.505  24.005 -16.045  0.00  0.00     0.085 A 
HETATM    9  C   UNK N   1     -20.188  25.072 -13.533  0.00  0.00     0.074 A 
HETATM   10  C   UNK N   1     -20.332  25.132 -15.953  0.00  0.00     0.074 A 
HETATM   11  C   UNK N   1     -20.669  25.670 -14.704  0.00  0.00     0.071 A 
ENDROOT
BRANCH   3  12
HETATM   12  C   UNK N   1     -18.109  21.550 -11.129  0.00  0.00    -0.028 A 
HETATM   13  C   UNK N   1     -17.202  20.482 -11.022  0.00  0.00     0.012 A 
HETATM   14  C   UNK N   1     -16.728  20.085  -9.769  0.00  0.00     0.037 A 
HETATM   15  C   UNK N   1     -17.150  20.752  -8.616  0.00  0.00     0.065 A 
HETATM   16  C   UNK N   1     -18.057  21.816  -8.718  0.00  0.00     0.037 A 
HETATM   17  C   UNK N   1     -18.538  22.210  -9.967  0.00  0.00     0.012 A 
BRANCH  15  18
HETATM   18  O   UNK N   1     -16.681  20.368  -7.412  0.00  0.00    -0.361 OA
HETATM   19  H   UNK N   1     -16.953  19.533  -7.007  0.00  0.00     0.217 HD
ENDBRANCH  15  18
ENDBRANCH   3  12
BRANCH   8  20
HETATM   20  O   UNK N   1     -19.184  23.504 -17.256  0.00  0.00    -0.360 OA
HETATM   21  H   UNK N   1     -19.609  23.819 -18.066  0.00  0.00     0.217 HD
ENDBRANCH   8  20
BRANCH  11  22
HETATM   22  O   UNK N   1     -21.462  26.756 -14.622  0.00  0.00    -0.361 OA
HETATM   23  H   UNK N   1     -21.985  27.056 -15.380  0.00  0.00     0.217 HD
ENDBRANCH  11  22
TORSDOF 4
ENDMDL
MODEL 7
REMARK VINA RESULT:      -6.9      3.093      8.226
REMARK  4 active torsions:
REMARK  status: ('A' for Active; 'I' for Inactive)
REMARK    1  A    between atoms: O_3  and  C_12 
REMARK    2  A    between atoms: O_4  and  C_17 
REMARK    3  A    between atoms: O_5  and  C_20 
REMARK    4  A    between atoms: C_6  and  C_8 
ROOT
HETATM    1  O   UNK N   1     -17.880  20.095  -6.685  0.00  0.00    -0.340 OA
HETATM    2  O   UNK N   1     -14.900  18.200  -8.581  0.00  0.00    -0.292 OA
HETATM    3  C   UNK N   1     -17.638  18.767  -6.364  0.00  0.00     0.169 C 
HETATM    4  C   UNK N   1     -16.158  18.425  -6.594  0.00  0.00     0.121 C 
HETATM    5  C   UNK N   1     -16.492  19.952  -8.635  0.00  0.00     0.076 A 
HETATM    6  C   UNK N   1     -15.799  18.795  -8.006  0.00  0.00     0.167 C 
HETATM    7  C   UNK N   1     -17.514  20.587  -7.898  0.00  0.00     0.089 A 
HETATM    8  C   UNK N   1     -16.156  20.431  -9.917  0.00  0.00     0.085 A 
HETATM    9  C   UNK N   1     -18.166  21.709  -8.419  0.00  0.00     0.074 A 
HETATM   10  C   UNK N   1     -16.832  21.543 -10.437  0.00  0.00     0.074 A 
HETATM   11  C   UNK N   1     -17.829  22.186  -9.692  0.00  0.00     0.071 A 
ENDROOT
BRANCH   3  12
HETATM   12  C   UNK N   1     -18.068  18.473  -4.952  0.00  0.00    -0.028 A 
HETATM   13  C   UNK N   1     -18.843  19.408  -4.245  0.00  0.00     0.012 A 
HETATM   14  C   UNK N   1     -19.257  19.136  -2.939  0.00  0.00     0.037 A 
HETATM   15  C   UNK N   1     -18.906  17.927  -2.330  0.00  0.00     0.065 A 
HETATM   16  C   UNK N   1     -18.130  16.993  -3.030  0.00  0.00     0.037 A 
HETATM   17  C   UNK N   1     -17.708  17.266  -4.332  0.00  0.00     0.012 A 
BRANCH  15  18
HETATM   18  O   UNK N   1     -19.317  17.669  -1.073  0.00  0.00    -0.361 OA
HETATM   19  H   UNK N   1     -20.247  17.751  -0.818  0.00  0.00     0.217 HD
ENDBRANCH  15  18
ENDBRANCH   3  12
BRANCH   8  20
HETATM   20  O   UNK N   1     -15.193  19.829 -10.644  0.00  0.00    -0.360 OA
HETATM   21  H   UNK N   1     -15.192  18.873 -10.793  0.00  0.00     0.217 HD
ENDBRANCH   8  20
BRANCH  11  22
HETATM   22  O   UNK N   1     -18.473  23.256 -10.196  0.00  0.00    -0.361 OA
HETATM   23  H   UNK N   1     -19.355  23.505  -9.882  0.00  0.00     0.217 HD
ENDBRANCH  11  22
TORSDOF 4
ENDMDL
MODEL 8
REMARK VINA RESULT:      -6.9      2.984      4.639
REMARK  4 active torsions:
REMARK  status: ('A' for Active; 'I' for Inactive)
REMARK    1  A    between atoms: O_3  and  C_12 
REMARK    2  A    between atoms: O_4  and  C_17 
REMARK    3  A    between atoms: O_5  and  C_20 
REMARK    4  A    between atoms: C_6  and  C_8 
ROOT
HETATM    1  O   UNK N   1     -19.181  22.909  -9.918  0.00  0.00    -0.340 OA
HETATM    2  O   UNK N   1     -17.894  21.256 -13.335  0.00  0.00    -0.292 OA
HETATM    3  C   UNK N   1     -19.241  23.669 -11.077  0.00  0.00     0.169 C 
HETATM    4  C   UNK N   1     -19.398  22.757 -12.304  0.00  0.00     0.121 C 
HETATM    5  C   UNK N   1     -17.768  21.282 -10.971  0.00  0.00     0.076 A 
HETATM    6  C   UNK N   1     -18.290  21.742 -12.287  0.00  0.00     0.167 C 
HETATM    7  C   UNK N   1     -18.286  21.891  -9.808  0.00  0.00     0.089 A 
HETATM    8  C   UNK N   1     -16.799  20.267 -10.852  0.00  0.00     0.085 A 
HETATM    9  C   UNK N   1     -17.868  21.466  -8.543  0.00  0.00     0.074 A 
HETATM   10  C   UNK N   1     -16.372  19.864  -9.580  0.00  0.00     0.074 A 
HETATM   11  C   UNK N   1     -16.907  20.455  -8.428  0.00  0.00     0.071 A 
ENDROOT
BRANCH   3  12
HETATM   12  C   UNK N   1     -20.345  24.688 -10.991  0.00  0.00    -0.028 A 
HETATM   13  C   UNK N   1     -21.440  24.464 -10.139  0.00  0.00     0.012 A 
HETATM   14  C   UNK N   1     -22.462  25.412 -10.043  0.00  0.00     0.037 A 
HETATM   15  C   UNK N   1     -22.398  26.591 -10.792  0.00  0.00     0.065 A 
HETATM   16  C   UNK N   1     -21.309  26.816 -11.646  0.00  0.00     0.037 A 
HETATM   17  C   UNK N   1     -20.291  25.868 -11.749  0.00  0.00     0.012 A 
BRANCH  15  18
HETATM   18  O   UNK N   1     -23.384  27.503 -10.687  0.00  0.00    -0.361 OA
HETATM   19  H   UNK N   1     -23.192  28.450 -10.628  0.00  0.00     0.217 HD
ENDBRANCH  15  18
ENDBRANCH   3  12
BRANCH   8  20
HETATM   20  O   UNK N   1     -16.279  19.682 -11.952  0.00  0.00    -0.360 OA
HETATM   21  H   UNK N   1     -16.827  19.468 -12.720  0.00  0.00     0.217 HD
ENDBRANCH   8  20
BRANCH  11  22
HETATM   22  O   UNK N   1     -16.495  20.062  -7.206  0.00  0.00    -0.361 OA
HETATM   23  H   UNK N   1     -15.640  19.625  -7.081  0.00  0.00     0.217 HD
ENDBRANCH  11  22
TORSDOF 4
ENDMDL
MODEL 9
REMARK VINA RESULT:      -6.7     15.557     16.702
REMARK  4 active torsions:
REMARK  status: ('A' for Active; 'I' for Inactive)
REMARK    1  A    between atoms: O_3  and  C_12 
REMARK    2  A    between atoms: O_4  and  C_17 
REMARK    3  A    between atoms: O_5  and  C_20 
REMARK    4  A    between atoms: C_6  and  C_8 
ROOT
HETATM    1  O   UNK N   1     -22.954  11.710   0.271  0.00  0.00    -0.340 OA
HETATM    2  O   UNK N   1     -23.393  15.073   2.407  0.00  0.00    -0.292 OA
HETATM    3  C   UNK N   1     -21.814  12.321   0.773  0.00  0.00     0.169 C 
HETATM    4  C   UNK N   1     -22.148  13.097   2.057  0.00  0.00     0.121 C 
HETATM    5  C   UNK N   1     -24.288  13.647   0.744  0.00  0.00     0.076 A 
HETATM    6  C   UNK N   1     -23.278  14.043   1.761  0.00  0.00     0.167 C 
HETATM    7  C   UNK N   1     -24.082  12.435   0.049  0.00  0.00     0.089 A 
HETATM    8  C   UNK N   1     -25.431  14.423   0.468  0.00  0.00     0.085 A 
HETATM    9  C   UNK N   1     -25.024  11.989  -0.883  0.00  0.00     0.074 A 
HETATM   10  C   UNK N   1     -26.357  13.975  -0.484  0.00  0.00     0.074 A 
HETATM   11  C   UNK N   1     -26.161  12.760  -1.154  0.00  0.00     0.071 A 
ENDROOT
BRANCH   3  12
HETATM   12  C   UNK N   1     -20.722  11.311   0.997  0.00  0.00    -0.028 A 
HETATM   13  C   UNK N   1     -19.614  11.641   1.795  0.00  0.00     0.012 A 
HETATM   14  C   UNK N   1     -18.603  10.703   2.019  0.00  0.00     0.037 A 
HETATM   15  C   UNK N   1     -18.692   9.427   1.453  0.00  0.00     0.065 A 
HETATM   16  C   UNK N   1     -19.794   9.095   0.653  0.00  0.00     0.037 A 
HETATM   17  C   UNK N   1     -20.802  10.033   0.421  0.00  0.00     0.012 A 
BRANCH  15  18
HETATM   18  O   UNK N   1     -17.717   8.526   1.681  0.00  0.00    -0.361 OA
HETATM   19  H   UNK N   1     -17.871   7.742   2.228  0.00  0.00     0.217 HD
ENDBRANCH  15  18
ENDBRANCH   3  12
BRANCH   8  20
HETATM   20  O   UNK N   1     -25.639  15.591   1.110  0.00  0.00    -0.360 OA
HETATM   21  H   UNK N   1     -25.155  16.394   0.872  0.00  0.00     0.217 HD
ENDBRANCH   8  20
BRANCH  11  22
HETATM   22  O   UNK N   1     -27.055  12.333  -2.067  0.00  0.00    -0.361 OA
HETATM   23  H   UNK N   1     -27.836  11.822  -1.804  0.00  0.00     0.217 HD
ENDBRANCH  11  22
TORSDOF 4
ENDMDL
