MODEL 1
REMARK VINA RESULT:      -5.4      0.000      0.000
REMARK  3 active torsions:
REMARK  status: ('A' for Active; 'I' for Inactive)
REMARK    1  A    between atoms: O_1  and  C_11 
REMARK    2  A    between atoms: C_3  and  C_6 
REMARK    3  A    between atoms: C_10  and  C_11 
ROOT
HETATM    1  C   UNK N   1     -30.813  40.014  -9.919  0.00  0.00    -0.036 A 
HETATM    2  C   UNK N   1     -31.973  39.712 -10.666  0.00  0.00     0.011 A 
HETATM    3  C   UNK N   1     -29.872  38.994  -9.689  0.00  0.00     0.011 A 
HETATM    4  C   UNK N   1     -32.174  38.427 -11.174  0.00  0.00     0.001 A 
HETATM    5  C   UNK N   1     -30.075  37.712 -10.210  0.00  0.00     0.001 A 
HETATM    6  C   UNK N   1     -31.223  37.430 -10.953  0.00  0.00     0.000 A 
ENDROOT
BRANCH   1   7
HETATM    7  C   UNK N   1     -30.546  41.373  -9.366  0.00  0.00     0.018 C 
HETATM    8  C   UNK N   1     -30.613  41.663  -8.050  0.00  0.00     0.082 C 
BRANCH   8   9
HETATM    9  C   UNK N   1     -30.362  43.020  -7.527  0.00  0.00     0.165 C 
HETATM   10  O   UNK N   1     -29.941  43.906  -8.253  0.00  0.00    -0.647 OA
BRANCH   9  11
HETATM   11  O   UNK N   1     -30.608  43.275  -6.223  0.00  0.00    -0.773 OA
HETATM   12  H   UNK N   1     -30.810  42.562  -5.602  0.00  0.00     0.167 HD
ENDBRANCH   9  11
ENDBRANCH   8   9
ENDBRANCH   1   7
TORSDOF 3
ENDMDL
MODEL 2
REMARK VINA RESULT:      -5.3     23.447     25.216
REMARK  3 active torsions:
REMARK  status: ('A' for Active; 'I' for Inactive)
REMARK    1  A    between atoms: O_1  and  C_11 
REMARK    2  A    between atoms: C_3  and  C_6 
REMARK    3  A    between atoms: C_10  and  C_11 
ROOT
HETATM    1  C   UNK N   1     -16.703  20.405 -10.375  0.00  0.00    -0.036 A 
HETATM    2  C   UNK N   1     -17.155  19.984 -11.646  0.00  0.00     0.011 A 
HETATM    3  C   UNK N   1     -17.116  21.659  -9.891  0.00  0.00     0.011 A 
HETATM    4  C   UNK N   1     -18.003  20.798 -12.400  0.00  0.00     0.001 A 
HETATM    5  C   UNK N   1     -17.974  22.463 -10.648  0.00  0.00     0.001 A 
HETATM    6  C   UNK N   1     -18.418  22.032 -11.899  0.00  0.00     0.000 A 
ENDROOT
BRANCH   1   7
HETATM    7  C   UNK N   1     -15.807  19.568  -9.526  0.00  0.00     0.018 C 
HETATM    8  C   UNK N   1     -16.123  19.181  -8.274  0.00  0.00     0.082 C 
BRANCH   8   9
HETATM    9  C   UNK N   1     -15.212  18.367  -7.444  0.00  0.00     0.165 C 
HETATM   10  O   UNK N   1     -15.569  17.925  -6.365  0.00  0.00    -0.647 OA
BRANCH   9  11
HETATM   11  O   UNK N   1     -13.965  18.114  -7.899  0.00  0.00    -0.773 OA
HETATM   12  H   UNK N   1     -13.516  17.282  -7.696  0.00  0.00     0.167 HD
ENDBRANCH   9  11
ENDBRANCH   8   9
ENDBRANCH   1   7
TORSDOF 3
ENDMDL
MODEL 3
REMARK VINA RESULT:      -5.2     23.441     25.029
REMARK  3 active torsions:
REMARK  status: ('A' for Active; 'I' for Inactive)
REMARK    1  A    between atoms: O_1  and  C_11 
REMARK    2  A    between atoms: C_3  and  C_6 
REMARK    3  A    between atoms: C_10  and  C_11 
ROOT
HETATM    1  C   UNK N   1     -16.614  20.145  -9.148  0.00  0.00    -0.036 A 
HETATM    2  C   UNK N   1     -17.125  20.312  -7.842  0.00  0.00     0.011 A 
HETATM    3  C   UNK N   1     -15.555  19.243  -9.351  0.00  0.00     0.011 A 
HETATM    4  C   UNK N   1     -16.590  19.586  -6.775  0.00  0.00     0.001 A 
HETATM    5  C   UNK N   1     -15.032  18.512  -8.279  0.00  0.00     0.001 A 
HETATM    6  C   UNK N   1     -15.550  18.682  -6.994  0.00  0.00     0.000 A 
ENDROOT
BRANCH   1   7
HETATM    7  C   UNK N   1     -17.159  20.887 -10.322  0.00  0.00     0.018 C 
HETATM    8  C   UNK N   1     -17.454  20.296 -11.498  0.00  0.00     0.082 C 
BRANCH   8   9
HETATM    9  C   UNK N   1     -17.975  21.054 -12.653  0.00  0.00     0.165 C 
HETATM   10  O   UNK N   1     -18.849  21.894 -12.513  0.00  0.00    -0.647 OA
BRANCH   9  11
HETATM   11  O   UNK N   1     -17.467  20.807 -13.881  0.00  0.00    -0.773 OA
HETATM   12  H   UNK N   1     -18.002  20.396 -14.573  0.00  0.00     0.167 HD
ENDBRANCH   9  11
ENDBRANCH   8   9
ENDBRANCH   1   7
TORSDOF 3
ENDMDL
MODEL 4
REMARK VINA RESULT:      -5.2     40.638     42.524
REMARK  3 active torsions:
REMARK  status: ('A' for Active; 'I' for Inactive)
REMARK    1  A    between atoms: O_1  and  C_11 
REMARK    2  A    between atoms: C_3  and  C_6 
REMARK    3  A    between atoms: C_10  and  C_11 
ROOT
HETATM    1  C   UNK N   1     -36.830  -1.748  -4.393  0.00  0.00    -0.036 A 
HETATM    2  C   UNK N   1     -36.182  -2.808  -3.721  0.00  0.00     0.011 A 
HETATM    3  C   UNK N   1     -36.685  -1.641  -5.788  0.00  0.00     0.011 A 
HETATM    4  C   UNK N   1     -35.419  -3.736  -4.434  0.00  0.00     0.001 A 
HETATM    5  C   UNK N   1     -35.928  -2.581  -6.496  0.00  0.00     0.001 A 
HETATM    6  C   UNK N   1     -35.298  -3.627  -5.820  0.00  0.00     0.000 A 
ENDROOT
BRANCH   1   7
HETATM    7  C   UNK N   1     -37.666  -0.739  -3.681  0.00  0.00     0.018 C 
HETATM    8  C   UNK N   1     -38.496   0.115  -4.314  0.00  0.00     0.082 C 
BRANCH   8   9
HETATM    9  C   UNK N   1     -39.300   1.118  -3.588  0.00  0.00     0.165 C 
HETATM   10  O   UNK N   1     -39.502   2.225  -4.061  0.00  0.00    -0.647 OA
BRANCH   9  11
HETATM   11  O   UNK N   1     -39.819   0.793  -2.383  0.00  0.00    -0.773 OA
HETATM   12  H   UNK N   1     -39.778  -0.112  -2.046  0.00  0.00     0.167 HD
ENDBRANCH   9  11
ENDBRANCH   8   9
ENDBRANCH   1   7
TORSDOF 3
ENDMDL
MODEL 5
REMARK VINA RESULT:      -5.0     21.532     23.253
REMARK  3 active torsions:
REMARK  status: ('A' for Active; 'I' for Inactive)
REMARK    1  A    between atoms: O_1  and  C_11 
REMARK    2  A    between atoms: C_3  and  C_6 
REMARK    3  A    between atoms: C_10  and  C_11 
ROOT
HETATM    1  C   UNK N   1     -17.502  21.600  -9.962  0.00  0.00    -0.036 A 
HETATM    2  C   UNK N   1     -17.999  21.674  -8.642  0.00  0.00     0.011 A 
HETATM    3  C   UNK N   1     -16.553  20.609 -10.273  0.00  0.00     0.011 A 
HETATM    4  C   UNK N   1     -17.562  20.772  -7.669  0.00  0.00     0.001 A 
HETATM    5  C   UNK N   1     -16.129  19.703  -9.296  0.00  0.00     0.001 A 
HETATM    6  C   UNK N   1     -16.633  19.784  -7.997  0.00  0.00     0.000 A 
ENDROOT
BRANCH   1   7
HETATM    7  C   UNK N   1     -17.945  22.530 -11.039  0.00  0.00     0.018 C 
HETATM    8  C   UNK N   1     -18.322  22.116 -12.266  0.00  0.00     0.082 C 
BRANCH   8   9
HETATM    9  C   UNK N   1     -18.740  23.058 -13.324  0.00  0.00     0.165 C 
HETATM   10  O   UNK N   1     -19.805  23.649 -13.255  0.00  0.00    -0.647 OA
BRANCH   9  11
HETATM   11  O   UNK N   1     -17.921  23.262 -14.379  0.00  0.00    -0.773 OA
HETATM   12  H   UNK N   1     -17.182  23.883 -14.328  0.00  0.00     0.167 HD
ENDBRANCH   9  11
ENDBRANCH   8   9
ENDBRANCH   1   7
TORSDOF 3
ENDMDL
MODEL 6
REMARK VINA RESULT:      -5.0     42.289     44.039
REMARK  3 active torsions:
REMARK  status: ('A' for Active; 'I' for Inactive)
REMARK    1  A    between atoms: O_1  and  C_11 
REMARK    2  A    between atoms: C_3  and  C_6 
REMARK    3  A    between atoms: C_10  and  C_11 
ROOT
HETATM    1  C   UNK N   1     -26.325  -3.434 -12.652  0.00  0.00    -0.036 A 
HETATM    2  C   UNK N   1     -26.356  -4.845 -12.602  0.00  0.00     0.011 A 
HETATM    3  C   UNK N   1     -25.432  -2.746 -11.810  0.00  0.00     0.011 A 
HETATM    4  C   UNK N   1     -25.508  -5.541 -11.737  0.00  0.00     0.001 A 
HETATM    5  C   UNK N   1     -24.579  -3.451 -10.955  0.00  0.00     0.001 A 
HETATM    6  C   UNK N   1     -24.617  -4.846 -10.920  0.00  0.00     0.000 A 
ENDROOT
BRANCH   1   7
HETATM    7  C   UNK N   1     -27.199  -2.644 -13.566  0.00  0.00     0.018 C 
HETATM    8  C   UNK N   1     -28.488  -2.357 -13.292  0.00  0.00     0.082 C 
BRANCH   8   9
HETATM    9  C   UNK N   1     -29.341  -1.588 -14.221  0.00  0.00     0.165 C 
HETATM   10  O   UNK N   1     -29.341  -1.825 -15.418  0.00  0.00    -0.647 OA
BRANCH   9  11
HETATM   11  O   UNK N   1     -30.131  -0.610 -13.726  0.00  0.00    -0.773 OA
HETATM   12  H   UNK N   1     -29.809   0.003 -13.052  0.00  0.00     0.167 HD
ENDBRANCH   9  11
ENDBRANCH   8   9
ENDBRANCH   1   7
TORSDOF 3
ENDMDL
MODEL 7
REMARK VINA RESULT:      -5.0     21.342     23.187
REMARK  3 active torsions:
REMARK  status: ('A' for Active; 'I' for Inactive)
REMARK    1  A    between atoms: O_1  and  C_11 
REMARK    2  A    between atoms: C_3  and  C_6 
REMARK    3  A    between atoms: C_10  and  C_11 
ROOT
HETATM    1  C   UNK N   1     -17.417  21.544  -9.791  0.00  0.00    -0.036 A 
HETATM    2  C   UNK N   1     -16.490  20.533 -10.125  0.00  0.00     0.011 A 
HETATM    3  C   UNK N   1     -17.939  21.579  -8.485  0.00  0.00     0.011 A 
HETATM    4  C   UNK N   1     -16.095  19.592  -9.172  0.00  0.00     0.001 A 
HETATM    5  C   UNK N   1     -17.530  20.639  -7.533  0.00  0.00     0.001 A 
HETATM    6  C   UNK N   1     -16.609  19.648  -7.876  0.00  0.00     0.000 A 
ENDROOT
BRANCH   1   7
HETATM    7  C   UNK N   1     -17.861  22.580 -10.767  0.00  0.00     0.018 C 
HETATM    8  C   UNK N   1     -18.310  22.286 -12.005  0.00  0.00     0.082 C 
BRANCH   8   9
HETATM    9  C   UNK N   1     -18.728  23.329 -12.962  0.00  0.00     0.165 C 
HETATM   10  O   UNK N   1     -18.381  23.287 -14.131  0.00  0.00    -0.647 OA
BRANCH   9  11
HETATM   11  O   UNK N   1     -19.510  24.342 -12.525  0.00  0.00    -0.773 OA
HETATM   12  H   UNK N   1     -19.304  24.820 -11.712  0.00  0.00     0.167 HD
ENDBRANCH   9  11
ENDBRANCH   8   9
ENDBRANCH   1   7
TORSDOF 3
ENDMDL
MODEL 8
REMARK VINA RESULT:      -4.8     20.700     22.054
REMARK  3 active torsions:
REMARK  status: ('A' for Active; 'I' for Inactive)
REMARK    1  A    between atoms: O_1  and  C_11 
REMARK    2  A    between atoms: C_3  and  C_6 
REMARK    3  A    between atoms: C_10  and  C_11 
ROOT
HETATM    1  C   UNK N   1     -18.598  23.344 -13.690  0.00  0.00    -0.036 A 
HETATM    2  C   UNK N   1     -17.938  22.640 -14.722  0.00  0.00     0.011 A 
HETATM    3  C   UNK N   1     -19.665  24.196 -14.026  0.00  0.00     0.011 A 
HETATM    4  C   UNK N   1     -18.348  22.784 -16.049  0.00  0.00     0.001 A 
HETATM    5  C   UNK N   1     -20.076  24.326 -15.357  0.00  0.00     0.001 A 
HETATM    6  C   UNK N   1     -19.419  23.620 -16.366  0.00  0.00     0.000 A 
ENDROOT
BRANCH   1   7
HETATM    7  C   UNK N   1     -18.208  23.216 -12.256  0.00  0.00     0.018 C 
HETATM    8  C   UNK N   1     -18.065  22.029 -11.631  0.00  0.00     0.082 C 
BRANCH   8   9
HETATM    9  C   UNK N   1     -17.695  21.927 -10.205  0.00  0.00     0.165 C 
HETATM   10  O   UNK N   1     -17.678  20.849  -9.635  0.00  0.00    -0.647 OA
BRANCH   9  11
HETATM   11  O   UNK N   1     -17.371  23.053  -9.531  0.00  0.00    -0.773 OA
HETATM   12  H   UNK N   1     -17.955  23.418  -8.852  0.00  0.00     0.167 HD
ENDBRANCH   9  11
ENDBRANCH   8   9
ENDBRANCH   1   7
TORSDOF 3
ENDMDL
MODEL 9
REMARK VINA RESULT:      -4.8     28.671     30.214
REMARK  3 active torsions:
REMARK  status: ('A' for Active; 'I' for Inactive)
REMARK    1  A    between atoms: O_1  and  C_11 
REMARK    2  A    between atoms: C_3  and  C_6 
REMARK    3  A    between atoms: C_10  and  C_11 
ROOT
HETATM    1  C   UNK N   1      -6.785  22.126  -6.098  0.00  0.00    -0.036 A 
HETATM    2  C   UNK N   1      -6.590  23.375  -6.730  0.00  0.00     0.011 A 
HETATM    3  C   UNK N   1      -5.705  21.229  -6.024  0.00  0.00     0.011 A 
HETATM    4  C   UNK N   1      -5.343  23.711  -7.262  0.00  0.00     0.001 A 
HETATM    5  C   UNK N   1      -4.456  21.578  -6.550  0.00  0.00     0.001 A 
HETATM    6  C   UNK N   1      -4.276  22.817  -7.166  0.00  0.00     0.000 A 
ENDROOT
BRANCH   1   7
HETATM    7  C   UNK N   1      -8.092  21.725  -5.503  0.00  0.00     0.018 C 
HETATM    8  C   UNK N   1      -9.156  21.346  -6.241  0.00  0.00     0.082 C 
BRANCH   8   9
HETATM    9  C   UNK N   1     -10.446  20.969  -5.630  0.00  0.00     0.165 C 
HETATM   10  O   UNK N   1     -10.892  19.840  -5.747  0.00  0.00    -0.647 OA
BRANCH   9  11
HETATM   11  O   UNK N   1     -11.134  21.898  -4.930  0.00  0.00    -0.773 OA
HETATM   12  H   UNK N   1     -10.740  22.349  -4.171  0.00  0.00     0.167 HD
ENDBRANCH   9  11
ENDBRANCH   8   9
ENDBRANCH   1   7
TORSDOF 3
ENDMDL
