MODEL 1
REMARK VINA RESULT:      -5.5      0.000      0.000
REMARK  5 active torsions:
REMARK  status: ('A' for Active; 'I' for Inactive)
REMARK    1  A    between atoms: O_1  and  C_6 
REMARK    2  A    between atoms: O_2  and  C_9 
REMARK    3  A    between atoms: O_3  and  C_14 
REMARK    4  A    between atoms: C_5  and  C_11 
REMARK    5  A    between atoms: C_12  and  C_14 
ROOT
HETATM    1  C   UNK N   1     -16.535  19.897  -9.095  0.00  0.00    -0.033 A 
HETATM    2  C   UNK N   1     -16.458  19.227  -6.750  0.00  0.00     0.102 A 
HETATM    3  C   UNK N   1     -17.063  19.946  -7.788  0.00  0.00     0.051 A 
HETATM    4  C   UNK N   1     -15.399  19.108  -9.339  0.00  0.00     0.014 A 
HETATM    5  C   UNK N   1     -15.319  18.454  -7.004  0.00  0.00     0.099 A 
HETATM    6  C   UNK N   1     -14.791  18.398  -8.299  0.00  0.00     0.040 A 
ENDROOT
BRANCH   1   7
HETATM    7  C   UNK N   1     -17.133  20.653 -10.231  0.00  0.00     0.018 C 
HETATM    8  C   UNK N   1     -17.269  20.143 -11.472  0.00  0.00     0.082 C 
BRANCH   8   9
HETATM    9  C   UNK N   1     -17.882  20.911 -12.575  0.00  0.00     0.165 C 
HETATM   10  O   UNK N   1     -18.785  21.706 -12.362  0.00  0.00    -0.647 OA
BRANCH   9  11
HETATM   11  O   UNK N   1     -17.433  20.724 -13.834  0.00  0.00    -0.773 OA
HETATM   12  H   UNK N   1     -17.388  19.840 -14.225  0.00  0.00     0.167 HD
ENDBRANCH   9  11
ENDBRANCH   8   9
ENDBRANCH   1   7
BRANCH   2  13
HETATM   13  O   UNK N   1     -16.975  19.283  -5.506  0.00  0.00    -0.353 OA
HETATM   14  C   UNK N   1     -16.761  20.375  -4.695  0.00  0.00     0.210 C 
ENDBRANCH   2  13
BRANCH   5  15
HETATM   15  O   UNK N   1     -14.736  17.773  -5.994  0.00  0.00    -0.358 OA
HETATM   16  H   UNK N   1     -14.285  16.930  -6.143  0.00  0.00     0.218 HD
ENDBRANCH   5  15
TORSDOF 5
ENDMDL
MODEL 2
REMARK VINA RESULT:      -5.4     29.950     30.580
REMARK  5 active torsions:
REMARK  status: ('A' for Active; 'I' for Inactive)
REMARK    1  A    between atoms: O_1  and  C_6 
REMARK    2  A    between atoms: O_2  and  C_9 
REMARK    3  A    between atoms: O_3  and  C_14 
REMARK    4  A    between atoms: C_5  and  C_11 
REMARK    5  A    between atoms: C_12  and  C_14 
ROOT
HETATM    1  C   UNK N   1     -37.278  -1.421  -4.696  0.00  0.00    -0.033 A 
HETATM    2  C   UNK N   1     -36.816  -2.498  -6.836  0.00  0.00     0.102 A 
HETATM    3  C   UNK N   1     -37.452  -1.496  -6.093  0.00  0.00     0.051 A 
HETATM    4  C   UNK N   1     -36.450  -2.363  -4.063  0.00  0.00     0.014 A 
HETATM    5  C   UNK N   1     -36.002  -3.438  -6.192  0.00  0.00     0.099 A 
HETATM    6  C   UNK N   1     -35.823  -3.369  -4.806  0.00  0.00     0.040 A 
ENDROOT
BRANCH   1   7
HETATM    7  C   UNK N   1     -37.943  -0.383  -3.859  0.00  0.00     0.018 C 
HETATM    8  C   UNK N   1     -39.257  -0.091  -3.944  0.00  0.00     0.082 C 
BRANCH   8   9
HETATM    9  C   UNK N   1     -39.891   0.934  -3.088  0.00  0.00     0.165 C 
HETATM   10  O   UNK N   1     -40.126   2.053  -3.518  0.00  0.00    -0.647 OA
BRANCH   9  11
HETATM   11  O   UNK N   1     -40.210   0.620  -1.815  0.00  0.00    -0.773 OA
HETATM   12  H   UNK N   1     -39.616   0.091  -1.264  0.00  0.00     0.167 HD
ENDBRANCH   9  11
ENDBRANCH   8   9
ENDBRANCH   1   7
BRANCH   2  13
HETATM   13  O   UNK N   1     -36.990  -2.557  -8.172  0.00  0.00    -0.353 OA
HETATM   14  C   UNK N   1     -38.133  -3.095  -8.718  0.00  0.00     0.210 C 
ENDBRANCH   2  13
BRANCH   5  15
HETATM   15  O   UNK N   1     -35.402  -4.408  -6.915  0.00  0.00    -0.358 OA
HETATM   16  H   UNK N   1     -34.528  -4.750  -6.680  0.00  0.00     0.218 HD
ENDBRANCH   5  15
TORSDOF 5
ENDMDL
MODEL 3
REMARK VINA RESULT:      -5.3      1.603      6.215
REMARK  5 active torsions:
REMARK  status: ('A' for Active; 'I' for Inactive)
REMARK    1  A    between atoms: O_1  and  C_6 
REMARK    2  A    between atoms: O_2  and  C_9 
REMARK    3  A    between atoms: O_3  and  C_14 
REMARK    4  A    between atoms: C_5  and  C_11 
REMARK    5  A    between atoms: C_12  and  C_14 
ROOT
HETATM    1  C   UNK N   1     -17.571  21.065  -9.922  0.00  0.00    -0.033 A 
HETATM    2  C   UNK N   1     -18.266  21.804 -12.140  0.00  0.00     0.102 A 
HETATM    3  C   UNK N   1     -18.304  21.942 -10.747  0.00  0.00     0.051 A 
HETATM    4  C   UNK N   1     -16.796  20.057 -10.520  0.00  0.00     0.014 A 
HETATM    5  C   UNK N   1     -17.500  20.788 -12.724  0.00  0.00     0.099 A 
HETATM    6  C   UNK N   1     -16.768  19.915 -11.911  0.00  0.00     0.040 A 
ENDROOT
BRANCH   1   7
HETATM    7  C   UNK N   1     -17.588  21.161  -8.435  0.00  0.00     0.018 C 
HETATM    8  C   UNK N   1     -17.020  20.243  -7.625  0.00  0.00     0.082 C 
BRANCH   8   9
HETATM    9  C   UNK N   1     -17.038  20.374  -6.154  0.00  0.00     0.165 C 
HETATM   10  O   UNK N   1     -16.191  19.827  -5.465  0.00  0.00    -0.647 OA
BRANCH   9  11
HETATM   11  O   UNK N   1     -18.010  21.108  -5.572  0.00  0.00    -0.773 OA
HETATM   12  H   UNK N   1     -18.639  20.710  -4.955  0.00  0.00     0.167 HD
ENDBRANCH   9  11
ENDBRANCH   8   9
ENDBRANCH   1   7
BRANCH   2  13
HETATM   13  O   UNK N   1     -18.971  22.651 -12.917  0.00  0.00    -0.353 OA
HETATM   14  C   UNK N   1     -19.344  23.894 -12.459  0.00  0.00     0.210 C 
ENDBRANCH   2  13
BRANCH   5  15
HETATM   15  O   UNK N   1     -17.479  20.656 -14.067  0.00  0.00    -0.358 OA
HETATM   16  H   UNK N   1     -16.761  21.022 -14.603  0.00  0.00     0.218 HD
ENDBRANCH   5  15
TORSDOF 5
ENDMDL
MODEL 4
REMARK VINA RESULT:      -5.3      1.583      2.977
REMARK  5 active torsions:
REMARK  status: ('A' for Active; 'I' for Inactive)
REMARK    1  A    between atoms: O_1  and  C_6 
REMARK    2  A    between atoms: O_2  and  C_9 
REMARK    3  A    between atoms: O_3  and  C_14 
REMARK    4  A    between atoms: C_5  and  C_11 
REMARK    5  A    between atoms: C_12  and  C_14 
ROOT
HETATM    1  C   UNK N   1     -17.512  20.971 -10.360  0.00  0.00    -0.033 A 
HETATM    2  C   UNK N   1     -16.772  20.003  -8.246  0.00  0.00     0.102 A 
HETATM    3  C   UNK N   1     -16.741  20.031  -9.646  0.00  0.00     0.051 A 
HETATM    4  C   UNK N   1     -18.304  21.885  -9.644  0.00  0.00     0.014 A 
HETATM    5  C   UNK N   1     -17.574  20.911  -7.545  0.00  0.00     0.099 A 
HETATM    6  C   UNK N   1     -18.340  21.849  -8.247  0.00  0.00     0.040 A 
ENDROOT
BRANCH   1   7
HETATM    7  C   UNK N   1     -17.524  21.034 -11.849  0.00  0.00     0.018 C 
HETATM    8  C   UNK N   1     -18.104  22.033 -12.545  0.00  0.00     0.082 C 
BRANCH   8   9
HETATM    9  C   UNK N   1     -18.086  22.077 -14.022  0.00  0.00     0.165 C 
HETATM   10  O   UNK N   1     -18.667  22.962 -14.631  0.00  0.00    -0.647 OA
BRANCH   9  11
HETATM   11  O   UNK N   1     -17.417  21.120 -14.698  0.00  0.00    -0.773 OA
HETATM   12  H   UNK N   1     -17.582  20.181 -14.535  0.00  0.00     0.167 HD
ENDBRANCH   9  11
ENDBRANCH   8   9
ENDBRANCH   1   7
BRANCH   2  13
HETATM   13  O   UNK N   1     -16.028  19.099  -7.577  0.00  0.00    -0.353 OA
HETATM   14  C   UNK N   1     -15.006  18.419  -8.198  0.00  0.00     0.210 C 
ENDBRANCH   2  13
BRANCH   5  15
HETATM   15  O   UNK N   1     -17.606  20.869  -6.195  0.00  0.00    -0.358 OA
HETATM   16  H   UNK N   1     -18.270  21.357  -5.687  0.00  0.00     0.218 HD
ENDBRANCH   5  15
TORSDOF 5
ENDMDL
MODEL 5
REMARK VINA RESULT:      -5.3      4.004      8.681
REMARK  5 active torsions:
REMARK  status: ('A' for Active; 'I' for Inactive)
REMARK    1  A    between atoms: O_1  and  C_6 
REMARK    2  A    between atoms: O_2  and  C_9 
REMARK    3  A    between atoms: O_3  and  C_14 
REMARK    4  A    between atoms: C_5  and  C_11 
REMARK    5  A    between atoms: C_12  and  C_14 
ROOT
HETATM    1  C   UNK N   1     -18.674  23.331 -13.668  0.00  0.00    -0.033 A 
HETATM    2  C   UNK N   1     -19.976  24.254 -15.514  0.00  0.00     0.102 A 
HETATM    3  C   UNK N   1     -19.698  24.176 -14.144  0.00  0.00     0.051 A 
HETATM    4  C   UNK N   1     -17.932  22.576 -14.592  0.00  0.00     0.014 A 
HETATM    5  C   UNK N   1     -19.238  23.487 -16.423  0.00  0.00     0.099 A 
HETATM    6  C   UNK N   1     -18.218  22.648 -15.959  0.00  0.00     0.040 A 
ENDROOT
BRANCH   1   7
HETATM    7  C   UNK N   1     -18.347  23.203 -12.220  0.00  0.00     0.018 C 
HETATM    8  C   UNK N   1     -17.973  22.043 -11.643  0.00  0.00     0.082 C 
BRANCH   8   9
HETATM    9  C   UNK N   1     -17.639  21.950 -10.207  0.00  0.00     0.165 C 
HETATM   10  O   UNK N   1     -17.598  20.868  -9.641  0.00  0.00    -0.647 OA
BRANCH   9  11
HETATM   11  O   UNK N   1     -17.381  23.082  -9.519  0.00  0.00    -0.773 OA
HETATM   12  H   UNK N   1     -16.769  23.749  -9.861  0.00  0.00     0.167 HD
ENDBRANCH   9  11
ENDBRANCH   8   9
ENDBRANCH   1   7
BRANCH   2  13
HETATM   13  O   UNK N   1     -20.957  25.067 -15.954  0.00  0.00    -0.353 OA
HETATM   14  C   UNK N   1     -22.174  25.126 -15.314  0.00  0.00     0.210 C 
ENDBRANCH   2  13
BRANCH   5  15
HETATM   15  O   UNK N   1     -19.521  23.560 -17.742  0.00  0.00    -0.358 OA
HETATM   16  H   UNK N   1     -19.256  24.321 -18.277  0.00  0.00     0.218 HD
ENDBRANCH   5  15
TORSDOF 5
ENDMDL
MODEL 6
REMARK VINA RESULT:      -5.2     25.398     26.540
REMARK  5 active torsions:
REMARK  status: ('A' for Active; 'I' for Inactive)
REMARK    1  A    between atoms: O_1  and  C_6 
REMARK    2  A    between atoms: O_2  and  C_9 
REMARK    3  A    between atoms: O_3  and  C_14 
REMARK    4  A    between atoms: C_5  and  C_11 
REMARK    5  A    between atoms: C_12  and  C_14 
ROOT
HETATM    1  C   UNK N   1     -37.841   7.298  -0.416  0.00  0.00    -0.033 A 
HETATM    2  C   UNK N   1     -39.469   6.137   0.982  0.00  0.00     0.102 A 
HETATM    3  C   UNK N   1     -38.200   6.704   0.811  0.00  0.00     0.051 A 
HETATM    4  C   UNK N   1     -38.780   7.319  -1.461  0.00  0.00     0.014 A 
HETATM    5  C   UNK N   1     -40.391   6.153  -0.071  0.00  0.00     0.099 A 
HETATM    6  C   UNK N   1     -40.043   6.743  -1.292  0.00  0.00     0.040 A 
ENDROOT
BRANCH   1   7
HETATM    7  C   UNK N   1     -36.500   7.904  -0.653  0.00  0.00     0.018 C 
HETATM    8  C   UNK N   1     -35.735   7.617  -1.725  0.00  0.00     0.082 C 
BRANCH   8   9
HETATM    9  C   UNK N   1     -34.416   8.246  -1.942  0.00  0.00     0.165 C 
HETATM   10  O   UNK N   1     -33.444   7.576  -2.255  0.00  0.00    -0.647 OA
BRANCH   9  11
HETATM   11  O   UNK N   1     -34.292   9.581  -1.786  0.00  0.00    -0.773 OA
HETATM   12  H   UNK N   1     -33.470  10.039  -2.009  0.00  0.00     0.167 HD
ENDBRANCH   9  11
ENDBRANCH   8   9
ENDBRANCH   1   7
BRANCH   2  13
HETATM   13  O   UNK N   1     -39.798   5.574   2.162  0.00  0.00    -0.353 OA
HETATM   14  C   UNK N   1     -40.066   6.346   3.269  0.00  0.00     0.210 C 
ENDBRANCH   2  13
BRANCH   5  15
HETATM   15  O   UNK N   1     -41.608   5.593   0.099  0.00  0.00    -0.358 OA
HETATM   16  H   UNK N   1     -41.862   4.780  -0.360  0.00  0.00     0.218 HD
ENDBRANCH   5  15
TORSDOF 5
ENDMDL
MODEL 7
REMARK VINA RESULT:      -5.1      2.342      5.884
REMARK  5 active torsions:
REMARK  status: ('A' for Active; 'I' for Inactive)
REMARK    1  A    between atoms: O_1  and  C_6 
REMARK    2  A    between atoms: O_2  and  C_9 
REMARK    3  A    between atoms: O_3  and  C_14 
REMARK    4  A    between atoms: C_5  and  C_11 
REMARK    5  A    between atoms: C_12  and  C_14 
ROOT
HETATM    1  C   UNK N   1     -16.374  19.037  -6.990  0.00  0.00    -0.033 A 
HETATM    2  C   UNK N   1     -16.714  20.227  -9.092  0.00  0.00     0.102 A 
HETATM    3  C   UNK N   1     -17.103  19.953  -7.775  0.00  0.00     0.051 A 
HETATM    4  C   UNK N   1     -15.247  18.410  -7.547  0.00  0.00     0.014 A 
HETATM    5  C   UNK N   1     -15.596  19.587  -9.640  0.00  0.00     0.099 A 
HETATM    6  C   UNK N   1     -14.866  18.678  -8.866  0.00  0.00     0.040 A 
ENDROOT
BRANCH   1   7
HETATM    7  C   UNK N   1     -16.754  18.702  -5.588  0.00  0.00     0.018 C 
HETATM    8  C   UNK N   1     -17.699  17.794  -5.272  0.00  0.00     0.082 C 
BRANCH   8   9
HETATM    9  C   UNK N   1     -18.043  17.470  -3.872  0.00  0.00     0.165 C 
HETATM   10  O   UNK N   1     -18.097  18.344  -3.021  0.00  0.00    -0.647 OA
BRANCH   9  11
HETATM   11  O   UNK N   1     -18.295  16.187  -3.538  0.00  0.00    -0.773 OA
HETATM   12  H   UNK N   1     -18.932  15.655  -4.034  0.00  0.00     0.167 HD
ENDBRANCH   9  11
ENDBRANCH   8   9
ENDBRANCH   1   7
BRANCH   2  13
HETATM   13  O   UNK N   1     -17.420  21.107  -9.831  0.00  0.00    -0.353 OA
HETATM   14  C   UNK N   1     -17.905  22.271  -9.280  0.00  0.00     0.210 C 
ENDBRANCH   2  13
BRANCH   5  15
HETATM   15  O   UNK N   1     -15.235  19.849 -10.915  0.00  0.00    -0.358 OA
HETATM   16  H   UNK N   1     -15.721  20.484 -11.460  0.00  0.00     0.218 HD
ENDBRANCH   5  15
TORSDOF 5
ENDMDL
MODEL 8
REMARK VINA RESULT:      -5.1      1.816      2.218
REMARK  5 active torsions:
REMARK  status: ('A' for Active; 'I' for Inactive)
REMARK    1  A    between atoms: O_1  and  C_6 
REMARK    2  A    between atoms: O_2  and  C_9 
REMARK    3  A    between atoms: O_3  and  C_14 
REMARK    4  A    between atoms: C_5  and  C_11 
REMARK    5  A    between atoms: C_12  and  C_14 
ROOT
HETATM    1  C   UNK N   1     -17.464  21.512  -9.961  0.00  0.00    -0.033 A 
HETATM    2  C   UNK N   1     -17.456  20.675  -7.669  0.00  0.00     0.102 A 
HETATM    3  C   UNK N   1     -17.926  21.578  -8.631  0.00  0.00     0.051 A 
HETATM    4  C   UNK N   1     -16.530  20.521 -10.307  0.00  0.00     0.014 A 
HETATM    5  C   UNK N   1     -16.516  19.700  -8.024  0.00  0.00     0.099 A 
HETATM    6  C   UNK N   1     -16.054  19.627  -9.343  0.00  0.00     0.040 A 
ENDROOT
BRANCH   1   7
HETATM    7  C   UNK N   1     -17.924  22.456 -11.018  0.00  0.00     0.018 C 
HETATM    8  C   UNK N   1     -18.331  22.060 -12.241  0.00  0.00     0.082 C 
BRANCH   8   9
HETATM    9  C   UNK N   1     -18.797  23.019 -13.264  0.00  0.00     0.165 C 
HETATM   10  O   UNK N   1     -19.907  23.523 -13.192  0.00  0.00    -0.647 OA
BRANCH   9  11
HETATM   11  O   UNK N   1     -17.979  23.332 -14.290  0.00  0.00    -0.773 OA
HETATM   12  H   UNK N   1     -18.097  24.149 -14.796  0.00  0.00     0.167 HD
ENDBRANCH   9  11
ENDBRANCH   8   9
ENDBRANCH   1   7
BRANCH   2  13
HETATM   13  O   UNK N   1     -17.908  20.749  -6.401  0.00  0.00    -0.353 OA
HETATM   14  C   UNK N   1     -19.227  20.498  -6.101  0.00  0.00     0.210 C 
ENDBRANCH   2  13
BRANCH   5  15
HETATM   15  O   UNK N   1     -16.059  18.841  -7.087  0.00  0.00    -0.358 OA
HETATM   16  H   UNK N   1     -15.468  19.131  -6.378  0.00  0.00     0.218 HD
ENDBRANCH   5  15
TORSDOF 5
ENDMDL
MODEL 9
REMARK VINA RESULT:      -5.1     28.022     28.697
REMARK  5 active torsions:
REMARK  status: ('A' for Active; 'I' for Inactive)
REMARK    1  A    between atoms: O_1  and  C_6 
REMARK    2  A    between atoms: O_2  and  C_9 
REMARK    3  A    between atoms: O_3  and  C_14 
REMARK    4  A    between atoms: C_5  and  C_11 
REMARK    5  A    between atoms: C_12  and  C_14 
ROOT
HETATM    1  C   UNK N   1     -30.537  -5.007 -12.992  0.00  0.00    -0.033 A 
HETATM    2  C   UNK N   1     -29.851  -2.671 -13.140  0.00  0.00     0.102 A 
HETATM    3  C   UNK N   1     -29.560  -4.005 -12.830  0.00  0.00     0.051 A 
HETATM    4  C   UNK N   1     -31.806  -4.648 -13.478  0.00  0.00     0.014 A 
HETATM    5  C   UNK N   1     -31.123  -2.323 -13.612  0.00  0.00     0.099 A 
HETATM    6  C   UNK N   1     -32.098  -3.313 -13.778  0.00  0.00     0.040 A 
ENDROOT
BRANCH   1   7
HETATM    7  C   UNK N   1     -30.281  -6.439 -12.665  0.00  0.00     0.018 C 
HETATM    8  C   UNK N   1     -29.442  -6.838 -11.688  0.00  0.00     0.082 C 
BRANCH   8   9
HETATM    9  C   UNK N   1     -29.221  -8.265 -11.375  0.00  0.00     0.165 C 
HETATM   10  O   UNK N   1     -28.119  -8.670 -11.038  0.00  0.00    -0.647 OA
BRANCH   9  11
HETATM   11  O   UNK N   1     -30.256  -9.125 -11.469  0.00  0.00    -0.773 OA
HETATM   12  H   UNK N   1     -30.224  -9.887 -12.065  0.00  0.00     0.167 HD
ENDBRANCH   9  11
ENDBRANCH   8   9
ENDBRANCH   1   7
BRANCH   2  13
HETATM   13  O   UNK N   1     -28.906  -1.723 -12.981  0.00  0.00    -0.353 OA
HETATM   14  C   UNK N   1     -27.576  -1.999 -13.204  0.00  0.00     0.210 C 
ENDBRANCH   2  13
BRANCH   5  15
HETATM   15  O   UNK N   1     -31.399  -1.032 -13.897  0.00  0.00    -0.358 OA
HETATM   16  H   UNK N   1     -30.817  -0.500 -14.457  0.00  0.00     0.218 HD
ENDBRANCH   5  15
TORSDOF 5
ENDMDL
