MODEL 1
REMARK VINA RESULT:      -8.8      0.000      0.000
REMARK  10 active torsions:
REMARK  status: ('A' for Active; 'I' for Inactive)
REMARK    1  A    between atoms: C_7  and  C_17 
REMARK    2  A    between atoms: C_8  and  C_18 
REMARK    3  A    between atoms: C_21  and  C_23 
REMARK    4  A    between atoms: C_22  and  C_24 
REMARK    5  A    between atoms: C_27  and  C_29 
REMARK    6  A    between atoms: C_28  and  C_30 
REMARK    7  A    between atoms: C_31  and  C_33 
REMARK    8  A    between atoms: C_32  and  C_34 
REMARK    9  A    between atoms: C_37  and  C_39 
REMARK   10  A    between atoms: C_38  and  C_40 
ROOT
HETATM    1  C   UNK N   1     -18.896  22.383 -11.268  0.00  0.00     0.001 C 
HETATM    2  C   UNK N   1     -18.590  23.417 -12.062  0.00  0.00     0.001 C 
ENDROOT
BRANCH   1   3
HETATM    3  C   UNK N   1     -17.848  21.701 -10.460  0.00  0.00     0.007 C 
HETATM    4  C   UNK N   1     -17.154  20.602 -10.856  0.00  0.00    -0.062 C 
HETATM    5  C   UNK N   1     -17.368  19.926 -12.201  0.00  0.00     0.048 C 
BRANCH   4   6
HETATM    6  C   UNK N   1     -16.131  20.041  -9.916  0.00  0.00     0.007 C 
HETATM    7  C   UNK N   1     -16.465  19.343  -8.815  0.00  0.00     0.001 C 
BRANCH   7   8
HETATM    8  C   UNK N   1     -15.421  18.794  -7.911  0.00  0.00     0.007 C 
HETATM    9  C   UNK N   1     -15.329  19.046  -6.579  0.00  0.00    -0.062 C 
HETATM   10  C   UNK N   1     -16.305  19.943  -5.830  0.00  0.00     0.048 C 
BRANCH   9  11
HETATM   11  C   UNK N   1     -14.219  18.387  -5.821  0.00  0.00     0.007 C 
HETATM   12  C   UNK N   1     -13.262  19.081  -5.166  0.00  0.00     0.009 C 
BRANCH  12  13
HETATM   13  C   UNK N   1     -12.128  18.451  -4.396  0.00  0.00    -0.048 C 
HETATM   14  C   UNK N   1     -10.724  18.502  -5.060  0.00  0.00    -0.020 C 
HETATM   15  C   UNK N   1      -9.597  18.062  -4.081  0.00  0.00     0.014 C 
HETATM   16  C   UNK N   1     -10.753  17.585  -6.306  0.00  0.00     0.020 C 
HETATM   17  C   UNK N   1     -10.342  19.929  -5.524  0.00  0.00     0.020 C 
HETATM   18  C   UNK N   1      -9.978  16.798  -3.344  0.00  0.00     0.005 C 
HETATM   19  C   UNK N   1     -11.186  17.097  -2.465  0.00  0.00     0.034 C 
HETATM   20  C   UNK N   1     -12.309  17.843  -3.166  0.00  0.00    -0.077 C 
HETATM   21  C   UNK N   1     -13.591  17.926  -2.361  0.00  0.00     0.044 C 
ENDBRANCH  12  13
ENDBRANCH   9  11
ENDBRANCH   7   8
ENDBRANCH   4   6
ENDBRANCH   1   3
BRANCH   2  22
HETATM   22  C   UNK N   1     -19.665  24.074 -12.854  0.00  0.00     0.007 C 
HETATM   23  C   UNK N   1     -19.726  24.152 -14.206  0.00  0.00    -0.062 C 
HETATM   24  C   UNK N   1     -18.670  23.558 -15.121  0.00  0.00     0.048 C 
BRANCH  23  25
HETATM   25  C   UNK N   1     -20.897  24.864 -14.802  0.00  0.00     0.007 C 
HETATM   26  C   UNK N   1     -21.386  24.590 -16.024  0.00  0.00     0.001 C 
BRANCH  26  27
HETATM   27  C   UNK N   1     -22.550  25.354 -16.541  0.00  0.00     0.007 C 
HETATM   28  C   UNK N   1     -23.226  25.094 -17.689  0.00  0.00    -0.062 C 
HETATM   29  C   UNK N   1     -22.868  23.956 -18.628  0.00  0.00     0.048 C 
BRANCH  28  30
HETATM   30  C   UNK N   1     -24.362  26.002 -18.031  0.00  0.00     0.007 C 
HETATM   31  C   UNK N   1     -25.207  26.521 -17.118  0.00  0.00     0.009 C 
BRANCH  31  32
HETATM   32  C   UNK N   1     -26.367  27.448 -17.411  0.00  0.00    -0.048 C 
HETATM   33  C   UNK N   1     -27.734  26.759 -17.665  0.00  0.00    -0.020 C 
HETATM   34  C   UNK N   1     -28.912  27.774 -17.640  0.00  0.00     0.014 C 
HETATM   35  C   UNK N   1     -27.692  26.008 -19.019  0.00  0.00     0.020 C 
HETATM   36  C   UNK N   1     -28.035  25.730 -16.548  0.00  0.00     0.020 C 
HETATM   37  C   UNK N   1     -28.606  28.975 -18.504  0.00  0.00     0.005 C 
HETATM   38  C   UNK N   1     -27.413  29.713 -17.912  0.00  0.00     0.034 C 
HETATM   39  C   UNK N   1     -26.241  28.827 -17.515  0.00  0.00    -0.077 C 
HETATM   40  C   UNK N   1     -24.937  29.568 -17.314  0.00  0.00     0.044 C 
ENDBRANCH  31  32
ENDBRANCH  28  30
ENDBRANCH  26  27
ENDBRANCH  23  25
ENDBRANCH   2  22
TORSDOF 10
ENDMDL
MODEL 2
REMARK VINA RESULT:      -8.7      3.320      6.070
REMARK  10 active torsions:
REMARK  status: ('A' for Active; 'I' for Inactive)
REMARK    1  A    between atoms: C_7  and  C_17 
REMARK    2  A    between atoms: C_8  and  C_18 
REMARK    3  A    between atoms: C_21  and  C_23 
REMARK    4  A    between atoms: C_22  and  C_24 
REMARK    5  A    between atoms: C_27  and  C_29 
REMARK    6  A    between atoms: C_28  and  C_30 
REMARK    7  A    between atoms: C_31  and  C_33 
REMARK    8  A    between atoms: C_32  and  C_34 
REMARK    9  A    between atoms: C_37  and  C_39 
REMARK   10  A    between atoms: C_38  and  C_40 
ROOT
HETATM    1  C   UNK N   1     -20.416  25.912 -12.754  0.00  0.00     0.001 C 
HETATM    2  C   UNK N   1     -21.574  25.855 -13.425  0.00  0.00     0.001 C 
ENDROOT
BRANCH   1   3
HETATM    3  C   UNK N   1     -20.021  24.827 -11.814  0.00  0.00     0.007 C 
HETATM    4  C   UNK N   1     -19.348  23.700 -12.164  0.00  0.00    -0.062 C 
HETATM    5  C   UNK N   1     -18.906  23.408 -13.590  0.00  0.00     0.048 C 
BRANCH   4   6
HETATM    6  C   UNK N   1     -19.030  22.709 -11.088  0.00  0.00     0.007 C 
HETATM    7  C   UNK N   1     -17.864  22.721 -10.414  0.00  0.00     0.001 C 
BRANCH   7   8
HETATM    8  C   UNK N   1     -17.588  21.726  -9.346  0.00  0.00     0.007 C 
HETATM    9  C   UNK N   1     -16.966  20.532  -9.532  0.00  0.00    -0.062 C 
HETATM   10  C   UNK N   1     -16.465  20.055 -10.888  0.00  0.00     0.048 C 
BRANCH   9  11
HETATM   11  C   UNK N   1     -16.754  19.663  -8.332  0.00  0.00     0.007 C 
HETATM   12  C   UNK N   1     -16.750  20.141  -7.068  0.00  0.00     0.009 C 
BRANCH  12  13
HETATM   13  C   UNK N   1     -16.536  19.297  -5.837  0.00  0.00    -0.048 C 
HETATM   14  C   UNK N   1     -17.718  19.223  -4.830  0.00  0.00    -0.020 C 
HETATM   15  C   UNK N   1     -17.493  18.136  -3.741  0.00  0.00     0.014 C 
HETATM   16  C   UNK N   1     -17.880  20.619  -4.183  0.00  0.00     0.020 C 
HETATM   17  C   UNK N   1     -19.057  18.856  -5.518  0.00  0.00     0.020 C 
HETATM   18  C   UNK N   1     -16.095  18.215  -3.173  0.00  0.00     0.005 C 
HETATM   19  C   UNK N   1     -15.103  17.889  -4.283  0.00  0.00     0.034 C 
HETATM   20  C   UNK N   1     -15.352  18.625  -5.589  0.00  0.00    -0.077 C 
HETATM   21  C   UNK N   1     -14.234  18.479  -6.603  0.00  0.00     0.044 C 
ENDBRANCH  12  13
ENDBRANCH   9  11
ENDBRANCH   7   8
ENDBRANCH   4   6
ENDBRANCH   1   3
BRANCH   2  22
HETATM   22  C   UNK N   1     -21.934  26.959 -14.357  0.00  0.00     0.007 C 
HETATM   23  C   UNK N   1     -22.897  26.915 -15.309  0.00  0.00    -0.062 C 
HETATM   24  C   UNK N   1     -23.764  25.695 -15.561  0.00  0.00     0.048 C 
BRANCH  23  25
HETATM   25  C   UNK N   1     -23.094  28.139 -16.144  0.00  0.00     0.007 C 
HETATM   26  C   UNK N   1     -24.237  28.847 -16.161  0.00  0.00     0.001 C 
BRANCH  26  27
HETATM   27  C   UNK N   1     -24.347  30.048 -17.028  0.00  0.00     0.007 C 
HETATM   28  C   UNK N   1     -25.504  30.623 -17.448  0.00  0.00    -0.062 C 
HETATM   29  C   UNK N   1     -26.879  30.096 -17.079  0.00  0.00     0.048 C 
BRANCH  28  30
HETATM   30  C   UNK N   1     -25.387  31.822 -18.331  0.00  0.00     0.007 C 
HETATM   31  C   UNK N   1     -24.686  32.926 -18.007  0.00  0.00     0.009 C 
BRANCH  31  32
HETATM   32  C   UNK N   1     -24.531  34.161 -18.868  0.00  0.00    -0.048 C 
HETATM   33  C   UNK N   1     -25.679  35.201 -18.769  0.00  0.00    -0.020 C 
HETATM   34  C   UNK N   1     -25.295  36.557 -19.425  0.00  0.00     0.014 C 
HETATM   35  C   UNK N   1     -26.958  34.623 -19.422  0.00  0.00     0.020 C 
HETATM   36  C   UNK N   1     -25.992  35.518 -17.286  0.00  0.00     0.020 C 
HETATM   37  C   UNK N   1     -24.714  36.343 -20.802  0.00  0.00     0.005 C 
HETATM   38  C   UNK N   1     -23.411  35.566 -20.670  0.00  0.00     0.034 C 
HETATM   39  C   UNK N   1     -23.475  34.357 -19.748  0.00  0.00    -0.077 C 
HETATM   40  C   UNK N   1     -22.337  33.375 -19.926  0.00  0.00     0.044 C 
ENDBRANCH  31  32
ENDBRANCH  28  30
ENDBRANCH  26  27
ENDBRANCH  23  25
ENDBRANCH   2  22
TORSDOF 10
ENDMDL
MODEL 3
REMARK VINA RESULT:      -8.6      1.066     18.103
REMARK  10 active torsions:
REMARK  status: ('A' for Active; 'I' for Inactive)
REMARK    1  A    between atoms: C_7  and  C_17 
REMARK    2  A    between atoms: C_8  and  C_18 
REMARK    3  A    between atoms: C_21  and  C_23 
REMARK    4  A    between atoms: C_22  and  C_24 
REMARK    5  A    between atoms: C_27  and  C_29 
REMARK    6  A    between atoms: C_28  and  C_30 
REMARK    7  A    between atoms: C_31  and  C_33 
REMARK    8  A    between atoms: C_32  and  C_34 
REMARK    9  A    between atoms: C_37  and  C_39 
REMARK   10  A    between atoms: C_38  and  C_40 
ROOT
HETATM    1  C   UNK N   1     -18.595  23.236 -13.047  0.00  0.00     0.001 C 
HETATM    2  C   UNK N   1     -18.994  22.174 -12.334  0.00  0.00     0.001 C 
ENDROOT
BRANCH   1   3
HETATM    3  C   UNK N   1     -19.564  24.024 -13.855  0.00  0.00     0.007 C 
HETATM    4  C   UNK N   1     -19.547  24.126 -15.210  0.00  0.00    -0.062 C 
HETATM    5  C   UNK N   1     -18.514  23.428 -16.081  0.00  0.00     0.048 C 
BRANCH   4   6
HETATM    6  C   UNK N   1     -20.601  24.964 -15.866  0.00  0.00     0.007 C 
HETATM    7  C   UNK N   1     -21.900  24.898 -15.518  0.00  0.00     0.001 C 
BRANCH   7   8
HETATM    8  C   UNK N   1     -22.915  25.753 -16.185  0.00  0.00     0.007 C 
HETATM    9  C   UNK N   1     -23.753  25.344 -17.175  0.00  0.00    -0.062 C 
HETATM   10  C   UNK N   1     -23.753  23.929 -17.736  0.00  0.00     0.048 C 
BRANCH   9  11
HETATM   11  C   UNK N   1     -24.729  26.341 -17.717  0.00  0.00     0.007 C 
HETATM   12  C   UNK N   1     -25.575  27.044 -16.932  0.00  0.00     0.009 C 
BRANCH  12  13
HETATM   13  C   UNK N   1     -26.573  28.053 -17.443  0.00  0.00    -0.048 C 
HETATM   14  C   UNK N   1     -26.330  29.535 -17.044  0.00  0.00    -0.020 C 
HETATM   15  C   UNK N   1     -27.256  30.512 -17.825  0.00  0.00     0.014 C 
HETATM   16  C   UNK N   1     -26.564  29.663 -15.520  0.00  0.00     0.020 C 
HETATM   17  C   UNK N   1     -24.883  29.998 -17.347  0.00  0.00     0.020 C 
HETATM   18  C   UNK N   1     -28.683  30.015 -17.838  0.00  0.00     0.005 C 
HETATM   19  C   UNK N   1     -28.733  28.703 -18.611  0.00  0.00     0.034 C 
HETATM   20  C   UNK N   1     -27.664  27.698 -18.216  0.00  0.00    -0.077 C 
HETATM   21  C   UNK N   1     -27.863  26.318 -18.814  0.00  0.00     0.044 C 
ENDBRANCH  12  13
ENDBRANCH   9  11
ENDBRANCH   7   8
ENDBRANCH   4   6
ENDBRANCH   1   3
BRANCH   2  22
HETATM   22  C   UNK N   1     -17.995  21.410 -11.537  0.00  0.00     0.007 C 
HETATM   23  C   UNK N   1     -17.837  21.466 -10.193  0.00  0.00    -0.062 C 
HETATM   24  C   UNK N   1     -18.686  22.343  -9.290  0.00  0.00     0.048 C 
BRANCH  23  25
HETATM   25  C   UNK N   1     -16.766  20.615  -9.591  0.00  0.00     0.007 C 
HETATM   26  C   UNK N   1     -16.893  19.992  -8.407  0.00  0.00     0.001 C 
BRANCH  26  27
HETATM   27  C   UNK N   1     -15.772  19.172  -7.881  0.00  0.00     0.007 C 
HETATM   28  C   UNK N   1     -15.390  19.087  -6.581  0.00  0.00    -0.062 C 
HETATM   29  C   UNK N   1     -16.076  19.846  -5.459  0.00  0.00     0.048 C 
BRANCH  28  30
HETATM   30  C   UNK N   1     -14.221  18.210  -6.270  0.00  0.00     0.007 C 
HETATM   31  C   UNK N   1     -13.172  18.598  -5.519  0.00  0.00     0.009 C 
BRANCH  31  32
HETATM   32  C   UNK N   1     -11.969  17.748  -5.170  0.00  0.00    -0.048 C 
HETATM   33  C   UNK N   1     -10.667  18.068  -5.951  0.00  0.00    -0.020 C 
HETATM   34  C   UNK N   1      -9.424  17.380  -5.318  0.00  0.00     0.014 C 
HETATM   35  C   UNK N   1     -10.832  17.639  -7.430  0.00  0.00     0.020 C 
HETATM   36  C   UNK N   1     -10.378  19.588  -5.915  0.00  0.00     0.020 C 
HETATM   37  C   UNK N   1      -9.694  15.918  -5.054  0.00  0.00     0.005 C 
HETATM   38  C   UNK N   1     -10.802  15.803  -4.016  0.00  0.00     0.034 C 
HETATM   39  C   UNK N   1     -12.008  16.699  -4.261  0.00  0.00    -0.077 C 
HETATM   40  C   UNK N   1     -13.246  16.304  -3.486  0.00  0.00     0.044 C 
ENDBRANCH  31  32
ENDBRANCH  28  30
ENDBRANCH  26  27
ENDBRANCH  23  25
ENDBRANCH   2  22
TORSDOF 10
ENDMDL
MODEL 4
REMARK VINA RESULT:      -8.6      1.009      1.935
REMARK  10 active torsions:
REMARK  status: ('A' for Active; 'I' for Inactive)
REMARK    1  A    between atoms: C_7  and  C_17 
REMARK    2  A    between atoms: C_8  and  C_18 
REMARK    3  A    between atoms: C_21  and  C_23 
REMARK    4  A    between atoms: C_22  and  C_24 
REMARK    5  A    between atoms: C_27  and  C_29 
REMARK    6  A    between atoms: C_28  and  C_30 
REMARK    7  A    between atoms: C_31  and  C_33 
REMARK    8  A    between atoms: C_32  and  C_34 
REMARK    9  A    between atoms: C_37  and  C_39 
REMARK   10  A    between atoms: C_38  and  C_40 
ROOT
HETATM    1  C   UNK N   1     -18.933  22.170 -12.096  0.00  0.00     0.001 C 
HETATM    2  C   UNK N   1     -18.593  23.247 -12.816  0.00  0.00     0.001 C 
ENDROOT
BRANCH   1   3
HETATM    3  C   UNK N   1     -17.909  21.400 -11.338  0.00  0.00     0.007 C 
HETATM    4  C   UNK N   1     -17.760  21.422  -9.988  0.00  0.00    -0.062 C 
HETATM    5  C   UNK N   1     -18.645  22.251  -9.069  0.00  0.00     0.048 C 
BRANCH   4   6
HETATM    6  C   UNK N   1     -16.675  20.584  -9.386  0.00  0.00     0.007 C 
HETATM    7  C   UNK N   1     -16.811  19.966  -8.198  0.00  0.00     0.001 C 
BRANCH   7   8
HETATM    8  C   UNK N   1     -15.714  19.135  -7.638  0.00  0.00     0.007 C 
HETATM    9  C   UNK N   1     -15.375  19.071  -6.323  0.00  0.00    -0.062 C 
HETATM   10  C   UNK N   1     -16.090  19.863  -5.237  0.00  0.00     0.048 C 
BRANCH   9  11
HETATM   11  C   UNK N   1     -14.251  18.160  -5.937  0.00  0.00     0.007 C 
HETATM   12  C   UNK N   1     -13.035  18.611  -5.559  0.00  0.00     0.009 C 
BRANCH  12  13
HETATM   13  C   UNK N   1     -11.880  17.724  -5.167  0.00  0.00    -0.048 C 
HETATM   14  C   UNK N   1     -10.578  17.867  -6.004  0.00  0.00    -0.020 C 
HETATM   15  C   UNK N   1      -9.383  17.104  -5.362  0.00  0.00     0.014 C 
HETATM   16  C   UNK N   1     -10.865  17.333  -7.427  0.00  0.00     0.020 C 
HETATM   17  C   UNK N   1     -10.115  19.340  -6.128  0.00  0.00     0.020 C 
HETATM   18  C   UNK N   1      -9.791  15.713  -4.935  0.00  0.00     0.005 C 
HETATM   19  C   UNK N   1     -10.835  15.833  -3.832  0.00  0.00     0.034 C 
HETATM   20  C   UNK N   1     -11.958  16.812  -4.128  0.00  0.00    -0.077 C 
HETATM   21  C   UNK N   1     -13.108  16.751  -3.142  0.00  0.00     0.044 C 
ENDBRANCH  12  13
ENDBRANCH   9  11
ENDBRANCH   7   8
ENDBRANCH   4   6
ENDBRANCH   1   3
BRANCH   2  22
HETATM   22  C   UNK N   1     -19.645  23.991 -13.560  0.00  0.00     0.007 C 
HETATM   23  C   UNK N   1     -19.756  24.080 -14.908  0.00  0.00    -0.062 C 
HETATM   24  C   UNK N   1     -18.789  23.412 -15.868  0.00  0.00     0.048 C 
BRANCH  23  25
HETATM   25  C   UNK N   1     -20.891  24.886 -15.452  0.00  0.00     0.007 C 
HETATM   26  C   UNK N   1     -21.458  24.651 -16.648  0.00  0.00     0.001 C 
BRANCH  26  27
HETATM   27  C   UNK N   1     -22.578  25.508 -17.114  0.00  0.00     0.007 C 
HETATM   28  C   UNK N   1     -23.761  25.068 -17.617  0.00  0.00    -0.062 C 
HETATM   29  C   UNK N   1     -24.104  23.597 -17.778  0.00  0.00     0.048 C 
BRANCH  28  30
HETATM   30  C   UNK N   1     -24.748  26.105 -18.042  0.00  0.00     0.007 C 
HETATM   31  C   UNK N   1     -25.553  26.769 -17.188  0.00  0.00     0.009 C 
BRANCH  31  32
HETATM   32  C   UNK N   1     -26.562  27.831 -17.567  0.00  0.00    -0.048 C 
HETATM   33  C   UNK N   1     -26.308  29.244 -16.979  0.00  0.00    -0.020 C 
HETATM   34  C   UNK N   1     -27.190  30.327 -17.662  0.00  0.00     0.014 C 
HETATM   35  C   UNK N   1     -26.558  29.222 -15.451  0.00  0.00     0.020 C 
HETATM   36  C   UNK N   1     -24.840  29.673 -17.225  0.00  0.00     0.020 C 
HETATM   37  C   UNK N   1     -28.634  29.885 -17.721  0.00  0.00     0.005 C 
HETATM   38  C   UNK N   1     -28.733  28.653 -18.609  0.00  0.00     0.034 C 
HETATM   39  C   UNK N   1     -27.689  27.579 -18.337  0.00  0.00    -0.077 C 
HETATM   40  C   UNK N   1     -28.024  26.221 -18.917  0.00  0.00     0.044 C 
ENDBRANCH  31  32
ENDBRANCH  28  30
ENDBRANCH  26  27
ENDBRANCH  23  25
ENDBRANCH   2  22
TORSDOF 10
ENDMDL
MODEL 5
REMARK VINA RESULT:      -8.5      1.471      2.779
REMARK  10 active torsions:
REMARK  status: ('A' for Active; 'I' for Inactive)
REMARK    1  A    between atoms: C_7  and  C_17 
REMARK    2  A    between atoms: C_8  and  C_18 
REMARK    3  A    between atoms: C_21  and  C_23 
REMARK    4  A    between atoms: C_22  and  C_24 
REMARK    5  A    between atoms: C_27  and  C_29 
REMARK    6  A    between atoms: C_28  and  C_30 
REMARK    7  A    between atoms: C_31  and  C_33 
REMARK    8  A    between atoms: C_32  and  C_34 
REMARK    9  A    between atoms: C_37  and  C_39 
REMARK   10  A    between atoms: C_38  and  C_40 
ROOT
HETATM    1  C   UNK N   1     -18.685  22.186 -11.489  0.00  0.00     0.001 C 
HETATM    2  C   UNK N   1     -18.304  23.188 -12.292  0.00  0.00     0.001 C 
ENDROOT
BRANCH   1   3
HETATM    3  C   UNK N   1     -17.722  21.546 -10.552  0.00  0.00     0.007 C 
HETATM    4  C   UNK N   1     -16.978  20.445 -10.831  0.00  0.00    -0.062 C 
HETATM    5  C   UNK N   1     -17.041  19.719 -12.166  0.00  0.00     0.048 C 
BRANCH   4   6
HETATM    6  C   UNK N   1     -16.056  19.931  -9.769  0.00  0.00     0.007 C 
HETATM    7  C   UNK N   1     -16.472  19.123  -8.776  0.00  0.00     0.001 C 
BRANCH   7   8
HETATM    8  C   UNK N   1     -15.524  18.626  -7.745  0.00  0.00     0.007 C 
HETATM    9  C   UNK N   1     -15.793  18.534  -6.416  0.00  0.00    -0.062 C 
HETATM   10  C   UNK N   1     -17.127  18.940  -5.805  0.00  0.00     0.048 C 
BRANCH   9  11
HETATM   11  C   UNK N   1     -14.721  17.989  -5.525  0.00  0.00     0.007 C 
HETATM   12  C   UNK N   1     -14.883  17.825  -4.194  0.00  0.00     0.009 C 
BRANCH  12  13
HETATM   13  C   UNK N   1     -13.825  17.283  -3.266  0.00  0.00    -0.048 C 
HETATM   14  C   UNK N   1     -14.137  15.928  -2.571  0.00  0.00    -0.020 C 
HETATM   15  C   UNK N   1     -12.891  15.339  -1.849  0.00  0.00     0.014 C 
HETATM   16  C   UNK N   1     -15.291  16.163  -1.567  0.00  0.00     0.020 C 
HETATM   17  C   UNK N   1     -14.591  14.840  -3.577  0.00  0.00     0.020 C 
HETATM   18  C   UNK N   1     -12.185  16.397  -1.033  0.00  0.00     0.005 C 
HETATM   19  C   UNK N   1     -11.640  17.456  -1.983  0.00  0.00     0.034 C 
HETATM   20  C   UNK N   1     -12.636  17.947  -3.020  0.00  0.00    -0.077 C 
HETATM   21  C   UNK N   1     -12.167  19.159  -3.802  0.00  0.00     0.044 C 
ENDBRANCH  12  13
ENDBRANCH   9  11
ENDBRANCH   7   8
ENDBRANCH   4   6
ENDBRANCH   1   3
BRANCH   2  22
HETATM   22  C   UNK N   1     -19.295  23.802 -13.217  0.00  0.00     0.007 C 
HETATM   23  C   UNK N   1     -19.158  23.936 -14.558  0.00  0.00    -0.062 C 
HETATM   24  C   UNK N   1     -17.933  23.463 -15.321  0.00  0.00     0.048 C 
BRANCH  23  25
HETATM   25  C   UNK N   1     -20.277  24.590 -15.302  0.00  0.00     0.007 C 
HETATM   26  C   UNK N   1     -20.956  25.652 -14.834  0.00  0.00     0.001 C 
BRANCH  26  27
HETATM   27  C   UNK N   1     -22.061  26.233 -15.638  0.00  0.00     0.007 C 
HETATM   28  C   UNK N   1     -23.383  26.172 -15.334  0.00  0.00    -0.062 C 
HETATM   29  C   UNK N   1     -23.924  25.479 -14.097  0.00  0.00     0.048 C 
BRANCH  28  30
HETATM   30  C   UNK N   1     -24.333  26.814 -16.294  0.00  0.00     0.007 C 
HETATM   31  C   UNK N   1     -25.610  27.121 -15.992  0.00  0.00     0.009 C 
BRANCH  31  32
HETATM   32  C   UNK N   1     -26.607  27.775 -16.923  0.00  0.00    -0.048 C 
HETATM   33  C   UNK N   1     -26.929  29.264 -16.628  0.00  0.00    -0.020 C 
HETATM   34  C   UNK N   1     -27.700  29.937 -17.800  0.00  0.00     0.014 C 
HETATM   35  C   UNK N   1     -27.740  29.367 -15.313  0.00  0.00     0.020 C 
HETATM   36  C   UNK N   1     -25.622  30.075 -16.457  0.00  0.00     0.020 C 
HETATM   37  C   UNK N   1     -28.866  29.082 -18.238  0.00  0.00     0.005 C 
HETATM   38  C   UNK N   1     -28.329  27.771 -18.796  0.00  0.00     0.034 C 
HETATM   39  C   UNK N   1     -27.258  27.102 -17.948  0.00  0.00    -0.077 C 
HETATM   40  C   UNK N   1     -27.023  25.643 -18.276  0.00  0.00     0.044 C 
ENDBRANCH  31  32
ENDBRANCH  28  30
ENDBRANCH  26  27
ENDBRANCH  23  25
ENDBRANCH   2  22
TORSDOF 10
ENDMDL
MODEL 6
REMARK VINA RESULT:      -8.5      3.186      5.412
REMARK  10 active torsions:
REMARK  status: ('A' for Active; 'I' for Inactive)
REMARK    1  A    between atoms: C_7  and  C_17 
REMARK    2  A    between atoms: C_8  and  C_18 
REMARK    3  A    between atoms: C_21  and  C_23 
REMARK    4  A    between atoms: C_22  and  C_24 
REMARK    5  A    between atoms: C_27  and  C_29 
REMARK    6  A    between atoms: C_28  and  C_30 
REMARK    7  A    between atoms: C_31  and  C_33 
REMARK    8  A    between atoms: C_32  and  C_34 
REMARK    9  A    between atoms: C_37  and  C_39 
REMARK   10  A    between atoms: C_38  and  C_40 
ROOT
HETATM    1  C   UNK N   1     -21.313  25.243 -11.591  0.00  0.00     0.001 C 
HETATM    2  C   UNK N   1     -20.821  26.489 -11.620  0.00  0.00     0.001 C 
ENDROOT
BRANCH   1   3
HETATM    3  C   UNK N   1     -20.701  24.197 -10.728  0.00  0.00     0.007 C 
HETATM    4  C   UNK N   1     -19.625  23.440 -11.067  0.00  0.00    -0.062 C 
HETATM    5  C   UNK N   1     -18.901  23.577 -12.398  0.00  0.00     0.048 C 
BRANCH   4   6
HETATM    6  C   UNK N   1     -19.136  22.429 -10.076  0.00  0.00     0.007 C 
HETATM    7  C   UNK N   1     -17.829  22.255  -9.804  0.00  0.00     0.001 C 
BRANCH   7   8
HETATM    8  C   UNK N   1     -17.383  21.248  -8.807  0.00  0.00     0.007 C 
HETATM    9  C   UNK N   1     -16.567  20.194  -9.073  0.00  0.00    -0.062 C 
HETATM   10  C   UNK N   1     -15.998  19.907 -10.455  0.00  0.00     0.048 C 
BRANCH   9  11
HETATM   11  C   UNK N   1     -16.205  19.290  -7.936  0.00  0.00     0.007 C 
HETATM   12  C   UNK N   1     -15.818  19.749  -6.725  0.00  0.00     0.009 C 
BRANCH  12  13
HETATM   13  C   UNK N   1     -15.442  18.869  -5.559  0.00  0.00    -0.048 C 
HETATM   14  C   UNK N   1     -16.577  18.528  -4.552  0.00  0.00    -0.020 C 
HETATM   15  C   UNK N   1     -16.152  17.420  -3.545  0.00  0.00     0.014 C 
HETATM   16  C   UNK N   1     -16.957  19.828  -3.805  0.00  0.00     0.020 C 
HETATM   17  C   UNK N   1     -17.848  17.989  -5.255  0.00  0.00     0.020 C 
HETATM   18  C   UNK N   1     -14.776  17.694  -2.983  0.00  0.00     0.005 C 
HETATM   19  C   UNK N   1     -13.765  17.618  -4.121  0.00  0.00     0.034 C 
HETATM   20  C   UNK N   1     -14.158  18.390  -5.368  0.00  0.00    -0.077 C 
HETATM   21  C   UNK N   1     -13.051  18.505  -6.398  0.00  0.00     0.044 C 
ENDBRANCH  12  13
ENDBRANCH   9  11
ENDBRANCH   7   8
ENDBRANCH   4   6
ENDBRANCH   1   3
BRANCH   2  22
HETATM   22  C   UNK N   1     -21.461  27.509 -12.495  0.00  0.00     0.007 C 
HETATM   23  C   UNK N   1     -22.444  28.367 -12.132  0.00  0.00    -0.062 C 
HETATM   24  C   UNK N   1     -23.043  28.404 -10.737  0.00  0.00     0.048 C 
BRANCH  23  25
HETATM   25  C   UNK N   1     -22.951  29.312 -13.173  0.00  0.00     0.007 C 
HETATM   26  C   UNK N   1     -23.725  28.931 -14.204  0.00  0.00     0.001 C 
BRANCH  26  27
HETATM   27  C   UNK N   1     -24.177  29.938 -15.198  0.00  0.00     0.007 C 
HETATM   28  C   UNK N   1     -24.992  29.700 -16.258  0.00  0.00    -0.062 C 
HETATM   29  C   UNK N   1     -25.565  28.331 -16.579  0.00  0.00     0.048 C 
BRANCH  28  30
HETATM   30  C   UNK N   1     -25.311  30.859 -17.146  0.00  0.00     0.007 C 
HETATM   31  C   UNK N   1     -24.726  32.068 -17.038  0.00  0.00     0.009 C 
BRANCH  31  32
HETATM   32  C   UNK N   1     -25.008  33.269 -17.915  0.00  0.00    -0.048 C 
HETATM   33  C   UNK N   1     -25.821  34.413 -17.253  0.00  0.00    -0.020 C 
HETATM   34  C   UNK N   1     -25.790  35.716 -18.100  0.00  0.00     0.014 C 
HETATM   35  C   UNK N   1     -27.280  33.946 -17.025  0.00  0.00     0.020 C 
HETATM   36  C   UNK N   1     -25.209  34.783 -15.879  0.00  0.00     0.020 C 
HETATM   37  C   UNK N   1     -26.116  35.426 -19.546  0.00  0.00     0.005 C 
HETATM   38  C   UNK N   1     -25.026  34.533 -20.124  0.00  0.00     0.034 C 
HETATM   39  C   UNK N   1     -24.633  33.351 -19.250  0.00  0.00    -0.077 C 
HETATM   40  C   UNK N   1     -23.869  32.264 -19.976  0.00  0.00     0.044 C 
ENDBRANCH  31  32
ENDBRANCH  28  30
ENDBRANCH  26  27
ENDBRANCH  23  25
ENDBRANCH   2  22
TORSDOF 10
ENDMDL
MODEL 7
REMARK VINA RESULT:      -8.4      1.270     17.987
REMARK  10 active torsions:
REMARK  status: ('A' for Active; 'I' for Inactive)
REMARK    1  A    between atoms: C_7  and  C_17 
REMARK    2  A    between atoms: C_8  and  C_18 
REMARK    3  A    between atoms: C_21  and  C_23 
REMARK    4  A    between atoms: C_22  and  C_24 
REMARK    5  A    between atoms: C_27  and  C_29 
REMARK    6  A    between atoms: C_28  and  C_30 
REMARK    7  A    between atoms: C_31  and  C_33 
REMARK    8  A    between atoms: C_32  and  C_34 
REMARK    9  A    between atoms: C_37  and  C_39 
REMARK   10  A    between atoms: C_38  and  C_40 
ROOT
HETATM    1  C   UNK N   1     -18.286  23.087 -11.756  0.00  0.00     0.001 C 
HETATM    2  C   UNK N   1     -18.550  21.908 -11.178  0.00  0.00     0.001 C 
ENDROOT
BRANCH   1   3
HETATM    3  C   UNK N   1     -19.257  23.719 -12.690  0.00  0.00     0.007 C 
HETATM    4  C   UNK N   1     -19.149  23.718 -14.044  0.00  0.00    -0.062 C 
HETATM    5  C   UNK N   1     -17.996  23.055 -14.783  0.00  0.00     0.048 C 
BRANCH   4   6
HETATM    6  C   UNK N   1     -20.220  24.402 -14.835  0.00  0.00     0.007 C 
HETATM    7  C   UNK N   1     -21.042  25.323 -14.298  0.00  0.00     0.001 C 
BRANCH   7   8
HETATM    8  C   UNK N   1     -22.087  25.988 -15.118  0.00  0.00     0.007 C 
HETATM    9  C   UNK N   1     -23.427  25.867 -14.924  0.00  0.00    -0.062 C 
HETATM   10  C   UNK N   1     -24.037  25.015 -13.819  0.00  0.00     0.048 C 
BRANCH   9  11
HETATM   11  C   UNK N   1     -24.335  26.629 -15.839  0.00  0.00     0.007 C 
HETATM   12  C   UNK N   1     -25.680  26.625 -15.712  0.00  0.00     0.009 C 
BRANCH  12  13
HETATM   13  C   UNK N   1     -26.624  27.378 -16.616  0.00  0.00    -0.048 C 
HETATM   14  C   UNK N   1     -27.677  26.529 -17.382  0.00  0.00    -0.020 C 
HETATM   15  C   UNK N   1     -28.752  27.415 -18.075  0.00  0.00     0.014 C 
HETATM   16  C   UNK N   1     -26.927  25.666 -18.424  0.00  0.00     0.020 C 
HETATM   17  C   UNK N   1     -28.462  25.576 -16.445  0.00  0.00     0.020 C 
HETATM   18  C   UNK N   1     -28.112  28.570 -18.812  0.00  0.00     0.005 C 
HETATM   19  C   UNK N   1     -27.433  29.477 -17.793  0.00  0.00     0.034 C 
HETATM   20  C   UNK N   1     -26.566  28.750 -16.780  0.00  0.00    -0.077 C 
HETATM   21  C   UNK N   1     -25.712  29.668 -15.926  0.00  0.00     0.044 C 
ENDBRANCH  12  13
ENDBRANCH   9  11
ENDBRANCH   7   8
ENDBRANCH   4   6
ENDBRANCH   1   3
BRANCH   2  22
HETATM   22  C   UNK N   1     -17.554  21.308 -10.250  0.00  0.00     0.007 C 
HETATM   23  C   UNK N   1     -16.717  20.281 -10.534  0.00  0.00    -0.062 C 
HETATM   24  C   UNK N   1     -16.683  19.584 -11.883  0.00  0.00     0.048 C 
BRANCH  23  25
HETATM   25  C   UNK N   1     -15.792  19.827  -9.451  0.00  0.00     0.007 C 
HETATM   26  C   UNK N   1     -16.138  18.932  -8.510  0.00  0.00     0.001 C 
BRANCH  26  27
HETATM   27  C   UNK N   1     -15.157  18.544  -7.465  0.00  0.00     0.007 C 
HETATM   28  C   UNK N   1     -15.143  18.990  -6.182  0.00  0.00    -0.062 C 
HETATM   29  C   UNK N   1     -16.157  19.976  -5.630  0.00  0.00     0.048 C 
BRANCH  28  30
HETATM   30  C   UNK N   1     -14.053  18.481  -5.296  0.00  0.00     0.007 C 
HETATM   31  C   UNK N   1     -12.829  18.132  -5.739  0.00  0.00     0.009 C 
BRANCH  31  32
HETATM   32  C   UNK N   1     -11.691  17.618  -4.884  0.00  0.00    -0.048 C 
HETATM   33  C   UNK N   1     -10.314  18.295  -5.116  0.00  0.00    -0.020 C 
HETATM   34  C   UNK N   1      -9.294  17.941  -3.997  0.00  0.00     0.014 C 
HETATM   35  C   UNK N   1      -9.763  17.884  -6.504  0.00  0.00     0.020 C 
HETATM   36  C   UNK N   1     -10.459  19.836  -5.089  0.00  0.00     0.020 C 
HETATM   37  C   UNK N   1      -9.265  16.452  -3.747  0.00  0.00     0.005 C 
HETATM   38  C   UNK N   1     -10.625  16.017  -3.218  0.00  0.00     0.034 C 
HETATM   39  C   UNK N   1     -11.819  16.570  -3.983  0.00  0.00    -0.077 C 
HETATM   40  C   UNK N   1     -13.119  15.838  -3.726  0.00  0.00     0.044 C 
ENDBRANCH  31  32
ENDBRANCH  28  30
ENDBRANCH  26  27
ENDBRANCH  23  25
ENDBRANCH   2  22
TORSDOF 10
ENDMDL
MODEL 8
REMARK VINA RESULT:      -8.0      2.215     18.393
REMARK  10 active torsions:
REMARK  status: ('A' for Active; 'I' for Inactive)
REMARK    1  A    between atoms: C_7  and  C_17 
REMARK    2  A    between atoms: C_8  and  C_18 
REMARK    3  A    between atoms: C_21  and  C_23 
REMARK    4  A    between atoms: C_22  and  C_24 
REMARK    5  A    between atoms: C_27  and  C_29 
REMARK    6  A    between atoms: C_28  and  C_30 
REMARK    7  A    between atoms: C_31  and  C_33 
REMARK    8  A    between atoms: C_32  and  C_34 
REMARK    9  A    between atoms: C_37  and  C_39 
REMARK   10  A    between atoms: C_38  and  C_40 
ROOT
HETATM    1  C   UNK N   1     -16.659  20.834  -9.395  0.00  0.00     0.001 C 
HETATM    2  C   UNK N   1     -17.118  20.355  -8.232  0.00  0.00     0.001 C 
ENDROOT
BRANCH   1   3
HETATM    3  C   UNK N   1     -17.571  21.499 -10.364  0.00  0.00     0.007 C 
HETATM    4  C   UNK N   1     -17.825  21.057 -11.624  0.00  0.00    -0.062 C 
HETATM    5  C   UNK N   1     -17.193  19.800 -12.204  0.00  0.00     0.048 C 
BRANCH   4   6
HETATM    6  C   UNK N   1     -18.773  21.849 -12.470  0.00  0.00     0.007 C 
HETATM    7  C   UNK N   1     -18.455  23.054 -12.980  0.00  0.00     0.001 C 
BRANCH   7   8
HETATM    8  C   UNK N   1     -19.420  23.806 -13.823  0.00  0.00     0.007 C 
HETATM    9  C   UNK N   1     -19.432  23.811 -15.182  0.00  0.00    -0.062 C 
HETATM   10  C   UNK N   1     -18.436  23.031 -16.028  0.00  0.00     0.048 C 
BRANCH   9  11
HETATM   11  C   UNK N   1     -20.495  24.613 -15.866  0.00  0.00     0.007 C 
HETATM   12  C   UNK N   1     -20.602  25.954 -15.738  0.00  0.00     0.009 C 
BRANCH  12  13
HETATM   13  C   UNK N   1     -21.660  26.794 -16.408  0.00  0.00    -0.048 C 
HETATM   14  C   UNK N   1     -22.863  27.231 -15.526  0.00  0.00    -0.020 C 
HETATM   15  C   UNK N   1     -23.753  28.293 -16.234  0.00  0.00     0.014 C 
HETATM   16  C   UNK N   1     -23.688  25.967 -15.186  0.00  0.00     0.020 C 
HETATM   17  C   UNK N   1     -22.413  27.882 -14.195  0.00  0.00     0.020 C 
HETATM   18  C   UNK N   1     -24.041  27.897 -17.663  0.00  0.00     0.005 C 
HETATM   19  C   UNK N   1     -22.728  27.887 -18.437  0.00  0.00     0.034 C 
HETATM   20  C   UNK N   1     -21.591  27.157 -17.742  0.00  0.00    -0.077 C 
HETATM   21  C   UNK N   1     -20.368  26.947 -18.613  0.00  0.00     0.044 C 
ENDBRANCH  12  13
ENDBRANCH   9  11
ENDBRANCH   7   8
ENDBRANCH   4   6
ENDBRANCH   1   3
BRANCH   2  22
HETATM   22  C   UNK N   1     -16.175  19.696  -7.287  0.00  0.00     0.007 C 
HETATM   23  C   UNK N   1     -16.514  18.869  -6.269  0.00  0.00    -0.062 C 
HETATM   24  C   UNK N   1     -17.949  18.492  -5.946  0.00  0.00     0.048 C 
BRANCH  23  25
HETATM   25  C   UNK N   1     -15.404  18.316  -5.434  0.00  0.00     0.007 C 
HETATM   26  C   UNK N   1     -14.436  19.076  -4.893  0.00  0.00     0.001 C 
BRANCH  26  27
HETATM   27  C   UNK N   1     -13.366  18.440  -4.083  0.00  0.00     0.007 C 
HETATM   28  C   UNK N   1     -12.072  18.278  -4.460  0.00  0.00    -0.062 C 
HETATM   29  C   UNK N   1     -11.531  18.737  -5.802  0.00  0.00     0.048 C 
BRANCH  28  30
HETATM   30  C   UNK N   1     -11.161  17.595  -3.493  0.00  0.00     0.007 C 
HETATM   31  C   UNK N   1     -11.518  16.527  -2.754  0.00  0.00     0.009 C 
BRANCH  31  32
HETATM   32  C   UNK N   1     -10.632  15.797  -1.767  0.00  0.00    -0.048 C 
HETATM   33  C   UNK N   1     -10.862  16.139  -0.271  0.00  0.00    -0.020 C 
HETATM   34  C   UNK N   1     -10.150  15.130   0.674  0.00  0.00     0.014 C 
HETATM   35  C   UNK N   1     -10.378  17.583   0.009  0.00  0.00     0.020 C 
HETATM   36  C   UNK N   1     -12.369  16.056   0.075  0.00  0.00     0.020 C 
HETATM   37  C   UNK N   1      -8.713  14.924   0.256  0.00  0.00     0.005 C 
HETATM   38  C   UNK N   1      -8.691  14.281  -1.124  0.00  0.00     0.034 C 
HETATM   39  C   UNK N   1      -9.627  14.916  -2.143  0.00  0.00    -0.077 C 
HETATM   40  C   UNK N   1      -9.319  14.557  -3.581  0.00  0.00     0.044 C 
ENDBRANCH  31  32
ENDBRANCH  28  30
ENDBRANCH  26  27
ENDBRANCH  23  25
ENDBRANCH   2  22
TORSDOF 10
ENDMDL
MODEL 9
REMARK VINA RESULT:      -7.9      1.995     18.221
REMARK  10 active torsions:
REMARK  status: ('A' for Active; 'I' for Inactive)
REMARK    1  A    between atoms: C_7  and  C_17 
REMARK    2  A    between atoms: C_8  and  C_18 
REMARK    3  A    between atoms: C_21  and  C_23 
REMARK    4  A    between atoms: C_22  and  C_24 
REMARK    5  A    between atoms: C_27  and  C_29 
REMARK    6  A    between atoms: C_28  and  C_30 
REMARK    7  A    between atoms: C_31  and  C_33 
REMARK    8  A    between atoms: C_32  and  C_34 
REMARK    9  A    between atoms: C_37  and  C_39 
REMARK   10  A    between atoms: C_38  and  C_40 
ROOT
HETATM    1  C   UNK N   1     -19.303  22.310 -11.393  0.00  0.00     0.001 C 
HETATM    2  C   UNK N   1     -18.017  22.602 -11.158  0.00  0.00     0.001 C 
ENDROOT
BRANCH   1   3
HETATM    3  C   UNK N   1     -20.140  23.180 -12.262  0.00  0.00     0.007 C 
HETATM    4  C   UNK N   1     -21.068  24.065 -11.815  0.00  0.00    -0.062 C 
HETATM    5  C   UNK N   1     -21.367  24.279 -10.338  0.00  0.00     0.048 C 
BRANCH   4   6
HETATM    6  C   UNK N   1     -21.825  24.865 -12.830  0.00  0.00     0.007 C 
HETATM    7  C   UNK N   1     -23.143  25.116 -12.719  0.00  0.00     0.001 C 
BRANCH   7   8
HETATM    8  C   UNK N   1     -23.857  25.922 -13.743  0.00  0.00     0.007 C 
HETATM    9  C   UNK N   1     -25.012  25.556 -14.359  0.00  0.00    -0.062 C 
HETATM   10  C   UNK N   1     -25.733  24.247 -14.071  0.00  0.00     0.048 C 
BRANCH   9  11
HETATM   11  C   UNK N   1     -25.602  26.508 -15.353  0.00  0.00     0.007 C 
HETATM   12  C   UNK N   1     -26.934  26.676 -15.510  0.00  0.00     0.009 C 
BRANCH  12  13
HETATM   13  C   UNK N   1     -27.563  27.621 -16.503  0.00  0.00    -0.048 C 
HETATM   14  C   UNK N   1     -27.862  29.061 -15.999  0.00  0.00    -0.020 C 
HETATM   15  C   UNK N   1     -28.265  30.016 -17.159  0.00  0.00     0.014 C 
HETATM   16  C   UNK N   1     -28.994  28.971 -14.948  0.00  0.00     0.020 C 
HETATM   17  C   UNK N   1     -26.632  29.718 -15.324  0.00  0.00     0.020 C 
HETATM   18  C   UNK N   1     -29.282  29.367 -18.070  0.00  0.00     0.005 C 
HETATM   19  C   UNK N   1     -28.632  28.164 -18.742  0.00  0.00     0.034 C 
HETATM   20  C   UNK N   1     -27.878  27.244 -17.797  0.00  0.00    -0.077 C 
HETATM   21  C   UNK N   1     -27.439  25.936 -18.427  0.00  0.00     0.044 C 
ENDBRANCH  12  13
ENDBRANCH   9  11
ENDBRANCH   7   8
ENDBRANCH   4   6
ENDBRANCH   1   3
BRANCH   2  22
HETATM   22  C   UNK N   1     -17.211  21.707 -10.283  0.00  0.00     0.007 C 
HETATM   23  C   UNK N   1     -16.755  20.474 -10.609  0.00  0.00    -0.062 C 
HETATM   24  C   UNK N   1     -17.012  19.819 -11.955  0.00  0.00     0.048 C 
BRANCH  23  25
HETATM   25  C   UNK N   1     -15.964  19.738  -9.575  0.00  0.00     0.007 C 
HETATM   26  C   UNK N   1     -16.439  19.439  -8.354  0.00  0.00     0.001 C 
BRANCH  26  27
HETATM   27  C   UNK N   1     -15.579  18.712  -7.386  0.00  0.00     0.007 C 
HETATM   28  C   UNK N   1     -15.531  18.928  -6.046  0.00  0.00    -0.062 C 
HETATM   29  C   UNK N   1     -16.371  19.977  -5.339  0.00  0.00     0.048 C 
BRANCH  28  30
HETATM   30  C   UNK N   1     -14.580  18.090  -5.255  0.00  0.00     0.007 C 
HETATM   31  C   UNK N   1     -14.585  18.019  -3.909  0.00  0.00     0.009 C 
BRANCH  31  32
HETATM   32  C   UNK N   1     -13.649  17.182  -3.064  0.00  0.00    -0.048 C 
HETATM   33  C   UNK N   1     -14.244  15.863  -2.503  0.00  0.00    -0.020 C 
HETATM   34  C   UNK N   1     -13.145  14.926  -1.927  0.00  0.00     0.014 C 
HETATM   35  C   UNK N   1     -15.302  16.191  -1.421  0.00  0.00     0.020 C 
HETATM   36  C   UNK N   1     -14.937  15.062  -3.633  0.00  0.00     0.020 C 
HETATM   37  C   UNK N   1     -12.225  15.684  -0.998  0.00  0.00     0.005 C 
HETATM   38  C   UNK N   1     -11.484  16.744  -1.801  0.00  0.00     0.034 C 
HETATM   39  C   UNK N   1     -12.356  17.567  -2.738  0.00  0.00    -0.077 C 
HETATM   40  C   UNK N   1     -11.717  18.853  -3.217  0.00  0.00     0.044 C 
ENDBRANCH  31  32
ENDBRANCH  28  30
ENDBRANCH  26  27
ENDBRANCH  23  25
ENDBRANCH   2  22
TORSDOF 10
ENDMDL
