MODEL 1
REMARK VINA RESULT:      -7.7      0.000      0.000
REMARK  16 active torsions:
REMARK  status: ('A' for Active; 'I' for Inactive)
REMARK    1  A    between atoms: O_2  and  C_22 
REMARK    2  A    between atoms: O_2  and  C_26 
REMARK    3  A    between atoms: O_4  and  C_18 
REMARK    4  A    between atoms: O_5  and  C_19 
REMARK    5  A    between atoms: O_6  and  C_25 
REMARK    6  A    between atoms: O_6  and  C_29 
REMARK    7  A    between atoms: O_7  and  C_20 
REMARK    8  A    between atoms: O_8  and  C_21 
REMARK    9  A    between atoms: O_9  and  C_23 
REMARK   10  A    between atoms: O_10  and  C_24 
REMARK   11  A    between atoms: O_13  and  C_35 
REMARK   12  A    between atoms: O_14  and  C_40 
REMARK   13  A    between atoms: O_15  and  C_41 
REMARK   14  A    between atoms: O_16  and  C_43 
REMARK   15  A    between atoms: C_17  and  C_26 
REMARK   16  A    between atoms: C_30  and  C_33 
ROOT
HETATM    1  O   UNK N   1     -23.841  26.218 -14.781  0.00  0.00    -0.348 OA
HETATM    2  C   UNK N   1     -25.094  25.993 -14.178  0.00  0.00     0.180 C 
HETATM    3  C   UNK N   1     -25.766  27.351 -13.863  0.00  0.00     0.180 C 
HETATM    4  C   UNK N   1     -24.851  28.159 -12.918  0.00  0.00     0.183 C 
HETATM    5  C   UNK N   1     -23.450  28.271 -13.553  0.00  0.00     0.205 C 
HETATM    6  C   UNK N   1     -22.924  26.867 -13.917  0.00  0.00     0.298 C 
ENDROOT
BRANCH   6   7
HETATM    7  O   UNK N   1     -21.735  26.994 -14.616  0.00  0.00    -0.311 OA
BRANCH   7   8
HETATM    8  C   UNK N   1     -20.827  25.980 -14.673  0.00  0.00     0.157 A 
HETATM    9  C   UNK N   1     -20.419  25.500 -15.925  0.00  0.00     0.124 A 
HETATM   10  O   UNK N   1     -19.624  24.440 -16.014  0.00  0.00    -0.306 OA
HETATM   11  C   UNK N   1     -19.173  23.786 -14.949  0.00  0.00     0.096 A 
HETATM   12  C   UNK N   1     -19.491  24.226 -13.644  0.00  0.00     0.084 A 
HETATM   13  C   UNK N   1     -18.400  22.636 -15.133  0.00  0.00     0.075 A 
HETATM   14  C   UNK N   1     -20.329  25.352 -13.512  0.00  0.00     0.223 A 
HETATM   15  C   UNK N   1     -18.988  23.512 -12.528  0.00  0.00     0.085 A 
HETATM   16  O   UNK N   1     -20.642  25.766 -12.409  0.00  0.00    -0.284 OA
HETATM   17  C   UNK N   1     -18.213  22.361 -12.735  0.00  0.00     0.074 A 
HETATM   18  C   UNK N   1     -17.930  21.917 -14.033  0.00  0.00     0.071 A 
BRANCH   9  19
HETATM   19  C   UNK N   1     -20.959  26.079 -17.164  0.00  0.00     0.004 A 
HETATM   20  C   UNK N   1     -22.101  25.524 -17.754  0.00  0.00     0.053 A 
HETATM   21  C   UNK N   1     -22.600  26.030 -18.960  0.00  0.00     0.099 A 
HETATM   22  C   UNK N   1     -21.952  27.135 -19.573  0.00  0.00     0.098 A 
HETATM   23  C   UNK N   1     -20.820  27.691 -18.963  0.00  0.00     0.040 A 
HETATM   24  C   UNK N   1     -20.318  27.160 -17.773  0.00  0.00     0.017 A 
BRANCH  21  25
HETATM   25  O   UNK N   1     -23.686  25.434 -19.503  0.00  0.00    -0.358 OA
HETATM   26  H   UNK N   1     -24.424  25.910 -19.903  0.00  0.00     0.218 HD
ENDBRANCH  21  25
BRANCH  22  27
HETATM   27  O   UNK N   1     -22.383  27.676 -20.735  0.00  0.00    -0.358 OA
HETATM   28  H   UNK N   1     -23.043  27.271 -21.310  0.00  0.00     0.218 HD
ENDBRANCH  22  27
ENDBRANCH   9  19
BRANCH  15  29
HETATM   29  O   UNK N   1     -19.255  23.918 -11.268  0.00  0.00    -0.360 OA
HETATM   30  H   UNK N   1     -18.560  24.010 -10.600  0.00  0.00     0.217 HD
ENDBRANCH  15  29
BRANCH  18  31
HETATM   31  O   UNK N   1     -17.208  20.794 -14.232  0.00  0.00    -0.361 OA
HETATM   32  H   UNK N   1     -17.330  20.007 -13.683  0.00  0.00     0.217 HD
ENDBRANCH  18  31
ENDBRANCH   7   8
ENDBRANCH   6   7
BRANCH   5  33
HETATM   33  O   UNK N   1     -22.557  28.948 -12.703  0.00  0.00    -0.388 OA
HETATM   34  H   UNK N   1     -21.969  28.267 -12.282  0.00  0.00     0.210 HD
ENDBRANCH   5  33
BRANCH   2  35
HETATM   35  C   UNK N   1     -25.909  25.152 -15.166  0.00  0.00     0.205 C 
BRANCH  35  36
HETATM   36  O   UNK N   1     -26.806  25.998 -15.860  0.00  0.00    -0.356 OA
BRANCH  36  37
HETATM   37  C   UNK N   1     -26.557  25.965 -17.256  0.00  0.00     0.291 C 
HETATM   38  O   UNK N   1     -25.502  26.847 -17.634  0.00  0.00    -0.351 OA
HETATM   39  C   UNK N   1     -25.796  28.205 -17.321  0.00  0.00     0.152 C 
HETATM   40  C   UNK N   1     -27.042  28.700 -18.096  0.00  0.00     0.178 C 
HETATM   41  C   UNK N   1     -24.567  29.046 -17.678  0.00  0.00     0.042 C 
HETATM   42  C   UNK N   1     -28.229  27.780 -17.762  0.00  0.00     0.183 C 
HETATM   43  C   UNK N   1     -27.854  26.308 -18.025  0.00  0.00     0.204 C 
BRANCH  40  44
HETATM   44  O   UNK N   1     -27.364  30.019 -17.727  0.00  0.00    -0.390 OA
HETATM   45  H   UNK N   1     -27.908  30.407 -18.463  0.00  0.00     0.210 HD
ENDBRANCH  40  44
BRANCH  42  46
HETATM   46  O   UNK N   1     -29.394  28.150 -18.457  0.00  0.00    -0.390 OA
HETATM   47  H   UNK N   1     -30.086  27.461 -18.281  0.00  0.00     0.210 HD
ENDBRANCH  42  46
BRANCH  43  48
HETATM   48  O   UNK N   1     -27.717  26.050 -19.404  0.00  0.00    -0.388 OA
HETATM   49  H   UNK N   1     -27.785  26.905 -19.903  0.00  0.00     0.210 HD
ENDBRANCH  43  48
ENDBRANCH  36  37
ENDBRANCH  35  36
ENDBRANCH   2  35
BRANCH   4  50
HETATM   50  O   UNK N   1     -25.373  29.445 -12.705  0.00  0.00    -0.390 OA
HETATM   51  H   UNK N   1     -25.463  29.870 -13.597  0.00  0.00     0.210 HD
ENDBRANCH   4  50
BRANCH   3  52
HETATM   52  O   UNK N   1     -27.042  27.172 -13.300  0.00  0.00    -0.390 OA
HETATM   53  H   UNK N   1     -26.989  26.401 -12.676  0.00  0.00     0.210 HD
ENDBRANCH   3  52
TORSDOF 16
ENDMDL
MODEL 2
REMARK VINA RESULT:      -7.7      2.414      5.842
REMARK  16 active torsions:
REMARK  status: ('A' for Active; 'I' for Inactive)
REMARK    1  A    between atoms: O_2  and  C_22 
REMARK    2  A    between atoms: O_2  and  C_26 
REMARK    3  A    between atoms: O_4  and  C_18 
REMARK    4  A    between atoms: O_5  and  C_19 
REMARK    5  A    between atoms: O_6  and  C_25 
REMARK    6  A    between atoms: O_6  and  C_29 
REMARK    7  A    between atoms: O_7  and  C_20 
REMARK    8  A    between atoms: O_8  and  C_21 
REMARK    9  A    between atoms: O_9  and  C_23 
REMARK   10  A    between atoms: O_10  and  C_24 
REMARK   11  A    between atoms: O_13  and  C_35 
REMARK   12  A    between atoms: O_14  and  C_40 
REMARK   13  A    between atoms: O_15  and  C_41 
REMARK   14  A    between atoms: O_16  and  C_43 
REMARK   15  A    between atoms: C_17  and  C_26 
REMARK   16  A    between atoms: C_30  and  C_33 
ROOT
HETATM    1  O   UNK N   1     -22.935  24.593 -12.811  0.00  0.00    -0.348 OA
HETATM    2  C   UNK N   1     -24.165  23.934 -12.618  0.00  0.00     0.180 C 
HETATM    3  C   UNK N   1     -24.595  24.066 -11.139  0.00  0.00     0.180 C 
HETATM    4  C   UNK N   1     -23.504  23.444 -10.240  0.00  0.00     0.183 C 
HETATM    5  C   UNK N   1     -22.148  24.098 -10.573  0.00  0.00     0.205 C 
HETATM    6  C   UNK N   1     -21.873  23.996 -12.087  0.00  0.00     0.298 C 
ENDROOT
BRANCH   6   7
HETATM    7  O   UNK N   1     -20.727  24.713 -12.391  0.00  0.00    -0.311 OA
BRANCH   7   8
HETATM    8  C   UNK N   1     -20.171  24.679 -13.634  0.00  0.00     0.157 A 
HETATM    9  C   UNK N   1     -19.132  23.774 -13.892  0.00  0.00     0.124 A 
HETATM   10  O   UNK N   1     -18.494  23.795 -15.056  0.00  0.00    -0.306 OA
HETATM   11  C   UNK N   1     -18.794  24.650 -16.028  0.00  0.00     0.096 A 
HETATM   12  C   UNK N   1     -19.859  25.567 -15.878  0.00  0.00     0.084 A 
HETATM   13  C   UNK N   1     -18.023  24.654 -17.194  0.00  0.00     0.075 A 
HETATM   14  C   UNK N   1     -20.563  25.570 -14.656  0.00  0.00     0.223 A 
HETATM   15  C   UNK N   1     -20.160  26.461 -16.936  0.00  0.00     0.085 A 
HETATM   16  O   UNK N   1     -21.482  26.348 -14.472  0.00  0.00    -0.284 OA
HETATM   17  C   UNK N   1     -19.375  26.447 -18.099  0.00  0.00     0.074 A 
HETATM   18  C   UNK N   1     -18.302  25.555 -18.223  0.00  0.00     0.071 A 
BRANCH   9  19
HETATM   19  C   UNK N   1     -18.645  22.870 -12.840  0.00  0.00     0.004 A 
HETATM   20  C   UNK N   1     -18.240  23.390 -11.605  0.00  0.00     0.053 A 
HETATM   21  C   UNK N   1     -17.727  22.550 -10.609  0.00  0.00     0.099 A 
HETATM   22  C   UNK N   1     -17.644  21.153 -10.852  0.00  0.00     0.098 A 
HETATM   23  C   UNK N   1     -18.070  20.645 -12.086  0.00  0.00     0.040 A 
HETATM   24  C   UNK N   1     -18.555  21.497 -13.079  0.00  0.00     0.017 A 
BRANCH  21  25
HETATM   25  O   UNK N   1     -17.319  23.110  -9.447  0.00  0.00    -0.358 OA
HETATM   26  H   UNK N   1     -17.856  23.706  -8.913  0.00  0.00     0.218 HD
ENDBRANCH  21  25
BRANCH  22  27
HETATM   27  O   UNK N   1     -17.164  20.285  -9.934  0.00  0.00    -0.358 OA
HETATM   28  H   UNK N   1     -16.229  20.193  -9.711  0.00  0.00     0.218 HD
ENDBRANCH  22  27
ENDBRANCH   9  19
BRANCH  15  29
HETATM   29  O   UNK N   1     -21.185  27.335 -16.833  0.00  0.00    -0.360 OA
HETATM   30  H   UNK N   1     -22.056  27.069 -16.506  0.00  0.00     0.217 HD
ENDBRANCH  15  29
BRANCH  18  31
HETATM   31  O   UNK N   1     -17.531  25.560 -19.330  0.00  0.00    -0.361 OA
HETATM   32  H   UNK N   1     -16.698  25.069 -19.372  0.00  0.00     0.217 HD
ENDBRANCH  18  31
ENDBRANCH   7   8
ENDBRANCH   6   7
BRANCH   5  33
HETATM   33  O   UNK N   1     -21.106  23.523  -9.823  0.00  0.00    -0.388 OA
HETATM   34  H   UNK N   1     -21.191  22.536  -9.897  0.00  0.00     0.210 HD
ENDBRANCH   5  33
BRANCH   2  35
HETATM   35  C   UNK N   1     -25.165  24.587 -13.579  0.00  0.00     0.205 C 
BRANCH  35  36
HETATM   36  O   UNK N   1     -24.513  24.863 -14.805  0.00  0.00    -0.356 OA
BRANCH  36  37
HETATM   37  C   UNK N   1     -25.161  24.210 -15.883  0.00  0.00     0.291 C 
HETATM   38  O   UNK N   1     -24.232  23.643 -16.805  0.00  0.00    -0.351 OA
HETATM   39  C   UNK N   1     -23.387  24.627 -17.393  0.00  0.00     0.152 C 
HETATM   40  C   UNK N   1     -24.210  25.648 -18.217  0.00  0.00     0.178 C 
HETATM   41  C   UNK N   1     -22.374  23.903 -18.284  0.00  0.00     0.042 C 
HETATM   42  C   UNK N   1     -25.261  26.292 -17.297  0.00  0.00     0.183 C 
HETATM   43  C   UNK N   1     -26.103  25.203 -16.603  0.00  0.00     0.204 C 
BRANCH  40  44
HETATM   44  O   UNK N   1     -23.374  26.654 -18.736  0.00  0.00    -0.390 OA
HETATM   45  H   UNK N   1     -22.655  26.815 -18.069  0.00  0.00     0.210 HD
ENDBRANCH  40  44
BRANCH  42  46
HETATM   46  O   UNK N   1     -26.070  27.213 -17.986  0.00  0.00    -0.390 OA
HETATM   47  H   UNK N   1     -26.240  26.850 -18.895  0.00  0.00     0.210 HD
ENDBRANCH  42  46
BRANCH  43  48
HETATM   48  O   UNK N   1     -26.944  24.541 -17.521  0.00  0.00    -0.388 OA
HETATM   49  H   UNK N   1     -26.896  25.003 -18.397  0.00  0.00     0.210 HD
ENDBRANCH  43  48
ENDBRANCH  36  37
ENDBRANCH  35  36
ENDBRANCH   2  35
BRANCH   4  50
HETATM   50  O   UNK N   1     -23.803  23.651  -8.884  0.00  0.00    -0.390 OA
HETATM   51  H   UNK N   1     -23.081  24.223  -8.514  0.00  0.00     0.210 HD
ENDBRANCH   4  50
BRANCH   3  52
HETATM   52  O   UNK N   1     -25.843  23.460 -10.911  0.00  0.00    -0.390 OA
HETATM   53  H   UNK N   1     -25.863  22.613 -11.429  0.00  0.00     0.210 HD
ENDBRANCH   3  52
TORSDOF 16
ENDMDL
MODEL 3
REMARK VINA RESULT:      -7.6      2.604      3.965
REMARK  16 active torsions:
REMARK  status: ('A' for Active; 'I' for Inactive)
REMARK    1  A    between atoms: O_2  and  C_22 
REMARK    2  A    between atoms: O_2  and  C_26 
REMARK    3  A    between atoms: O_4  and  C_18 
REMARK    4  A    between atoms: O_5  and  C_19 
REMARK    5  A    between atoms: O_6  and  C_25 
REMARK    6  A    between atoms: O_6  and  C_29 
REMARK    7  A    between atoms: O_7  and  C_20 
REMARK    8  A    between atoms: O_8  and  C_21 
REMARK    9  A    between atoms: O_9  and  C_23 
REMARK   10  A    between atoms: O_10  and  C_24 
REMARK   11  A    between atoms: O_13  and  C_35 
REMARK   12  A    between atoms: O_14  and  C_40 
REMARK   13  A    between atoms: O_15  and  C_41 
REMARK   14  A    between atoms: O_16  and  C_43 
REMARK   15  A    between atoms: C_17  and  C_26 
REMARK   16  A    between atoms: C_30  and  C_33 
ROOT
HETATM    1  O   UNK N   1     -24.076  24.539 -13.001  0.00  0.00    -0.348 OA
HETATM    2  C   UNK N   1     -25.087  23.793 -13.636  0.00  0.00     0.180 C 
HETATM    3  C   UNK N   1     -26.415  23.958 -12.859  0.00  0.00     0.180 C 
HETATM    4  C   UNK N   1     -26.215  23.468 -11.409  0.00  0.00     0.183 C 
HETATM    5  C   UNK N   1     -25.015  24.212 -10.790  0.00  0.00     0.205 C 
HETATM    6  C   UNK N   1     -23.777  24.064 -11.699  0.00  0.00     0.298 C 
ENDROOT
BRANCH   6   7
HETATM    7  O   UNK N   1     -22.753  24.855 -11.207  0.00  0.00    -0.311 OA
BRANCH   7   8
HETATM    8  C   UNK N   1     -21.486  24.377 -11.063  0.00  0.00     0.157 A 
HETATM    9  C   UNK N   1     -20.556  24.589 -12.090  0.00  0.00     0.124 A 
HETATM   10  O   UNK N   1     -19.349  24.040 -12.029  0.00  0.00    -0.306 OA
HETATM   11  C   UNK N   1     -18.954  23.276 -11.016  0.00  0.00     0.096 A 
HETATM   12  C   UNK N   1     -19.805  23.046  -9.912  0.00  0.00     0.084 A 
HETATM   13  C   UNK N   1     -17.692  22.676 -11.067  0.00  0.00     0.075 A 
HETATM   14  C   UNK N   1     -21.093  23.619  -9.939  0.00  0.00     0.223 A 
HETATM   15  C   UNK N   1     -19.352  22.234  -8.843  0.00  0.00     0.085 A 
HETATM   16  O   UNK N   1     -21.870  23.443  -9.017  0.00  0.00    -0.284 OA
HETATM   17  C   UNK N   1     -18.082  21.643  -8.913  0.00  0.00     0.074 A 
HETATM   18  C   UNK N   1     -17.259  21.853 -10.027  0.00  0.00     0.071 A 
BRANCH   9  19
HETATM   19  C   UNK N   1     -20.936  25.318 -13.309  0.00  0.00     0.004 A 
HETATM   20  C   UNK N   1     -21.236  26.684 -13.240  0.00  0.00     0.053 A 
HETATM   21  C   UNK N   1     -21.647  27.383 -14.381  0.00  0.00     0.099 A 
HETATM   22  C   UNK N   1     -21.733  26.700 -15.623  0.00  0.00     0.098 A 
HETATM   23  C   UNK N   1     -21.414  25.337 -15.680  0.00  0.00     0.040 A 
HETATM   24  C   UNK N   1     -21.030  24.646 -14.530  0.00  0.00     0.017 A 
BRANCH  21  25
HETATM   25  O   UNK N   1     -21.957  28.694 -14.252  0.00  0.00    -0.358 OA
HETATM   26  H   UNK N   1     -21.310  29.408 -14.255  0.00  0.00     0.218 HD
ENDBRANCH  21  25
BRANCH  22  27
HETATM   27  O   UNK N   1     -22.119  27.315 -16.764  0.00  0.00    -0.358 OA
HETATM   28  H   UNK N   1     -22.446  26.852 -17.545  0.00  0.00     0.218 HD
ENDBRANCH  22  27
ENDBRANCH   9  19
BRANCH  15  29
HETATM   29  O   UNK N   1     -20.132  22.012  -7.763  0.00  0.00    -0.360 OA
HETATM   30  H   UNK N   1     -19.761  21.896  -6.876  0.00  0.00     0.217 HD
ENDBRANCH  15  29
BRANCH  18  31
HETATM   31  O   UNK N   1     -16.049  21.262 -10.107  0.00  0.00    -0.361 OA
HETATM   32  H   UNK N   1     -15.329  21.645 -10.628  0.00  0.00     0.217 HD
ENDBRANCH  18  31
ENDBRANCH   7   8
ENDBRANCH   6   7
BRANCH   5  33
HETATM   33  O   UNK N   1     -24.750  23.759  -9.486  0.00  0.00    -0.388 OA
HETATM   34  H   UNK N   1     -25.543  23.244  -9.179  0.00  0.00     0.210 HD
ENDBRANCH   5  33
BRANCH   2  35
HETATM   35  C   UNK N   1     -25.180  24.319 -15.073  0.00  0.00     0.205 C 
BRANCH  35  36
HETATM   36  O   UNK N   1     -26.203  25.295 -15.139  0.00  0.00    -0.356 OA
BRANCH  36  37
HETATM   37  C   UNK N   1     -25.729  26.486 -15.745  0.00  0.00     0.291 C 
HETATM   38  O   UNK N   1     -26.529  27.617 -15.404  0.00  0.00    -0.351 OA
HETATM   39  C   UNK N   1     -27.880  27.471 -15.831  0.00  0.00     0.152 C 
HETATM   40  C   UNK N   1     -27.968  27.357 -17.373  0.00  0.00     0.178 C 
HETATM   41  C   UNK N   1     -28.664  28.688 -15.332  0.00  0.00     0.042 C 
HETATM   42  C   UNK N   1     -27.105  26.168 -17.830  0.00  0.00     0.183 C 
HETATM   43  C   UNK N   1     -25.672  26.305 -17.280  0.00  0.00     0.204 C 
BRANCH  40  44
HETATM   44  O   UNK N   1     -29.298  27.143 -17.779  0.00  0.00    -0.390 OA
HETATM   45  H   UNK N   1     -29.410  27.577 -18.666  0.00  0.00     0.210 HD
ENDBRANCH  40  44
BRANCH  42  46
HETATM   46  O   UNK N   1     -27.112  26.019 -19.228  0.00  0.00    -0.390 OA
HETATM   47  H   UNK N   1     -27.804  26.628 -19.597  0.00  0.00     0.210 HD
ENDBRANCH  42  46
BRANCH  43  48
HETATM   48  O   UNK N   1     -24.983  27.367 -17.898  0.00  0.00    -0.388 OA
HETATM   49  H   UNK N   1     -24.011  27.171 -17.893  0.00  0.00     0.210 HD
ENDBRANCH  43  48
ENDBRANCH  36  37
ENDBRANCH  35  36
ENDBRANCH   2  35
BRANCH   4  50
HETATM   50  O   UNK N   1     -27.364  23.712 -10.641  0.00  0.00    -0.390 OA
HETATM   51  H   UNK N   1     -27.308  23.123  -9.844  0.00  0.00     0.210 HD
ENDBRANCH   4  50
BRANCH   3  52
HETATM   52  O   UNK N   1     -27.465  23.265 -13.486  0.00  0.00    -0.390 OA
HETATM   53  H   UNK N   1     -27.159  22.332 -13.640  0.00  0.00     0.210 HD
ENDBRANCH   3  52
TORSDOF 16
ENDMDL
MODEL 4
REMARK VINA RESULT:      -7.6      2.857      4.544
REMARK  16 active torsions:
REMARK  status: ('A' for Active; 'I' for Inactive)
REMARK    1  A    between atoms: O_2  and  C_22 
REMARK    2  A    between atoms: O_2  and  C_26 
REMARK    3  A    between atoms: O_4  and  C_18 
REMARK    4  A    between atoms: O_5  and  C_19 
REMARK    5  A    between atoms: O_6  and  C_25 
REMARK    6  A    between atoms: O_6  and  C_29 
REMARK    7  A    between atoms: O_7  and  C_20 
REMARK    8  A    between atoms: O_8  and  C_21 
REMARK    9  A    between atoms: O_9  and  C_23 
REMARK   10  A    between atoms: O_10  and  C_24 
REMARK   11  A    between atoms: O_13  and  C_35 
REMARK   12  A    between atoms: O_14  and  C_40 
REMARK   13  A    between atoms: O_15  and  C_41 
REMARK   14  A    between atoms: O_16  and  C_43 
REMARK   15  A    between atoms: C_17  and  C_26 
REMARK   16  A    between atoms: C_30  and  C_33 
ROOT
HETATM    1  O   UNK N   1     -23.706  24.708 -12.290  0.00  0.00    -0.348 OA
HETATM    2  C   UNK N   1     -24.792  24.104 -12.953  0.00  0.00     0.180 C 
HETATM    3  C   UNK N   1     -26.009  24.043 -12.001  0.00  0.00     0.180 C 
HETATM    4  C   UNK N   1     -25.626  23.230 -10.745  0.00  0.00     0.183 C 
HETATM    5  C   UNK N   1     -24.356  23.842 -10.122  0.00  0.00     0.205 C 
HETATM    6  C   UNK N   1     -23.244  23.947 -11.187  0.00  0.00     0.298 C 
ENDROOT
BRANCH   6   7
HETATM    7  O   UNK N   1     -22.164  24.630 -10.652  0.00  0.00    -0.311 OA
BRANCH   7   8
HETATM    8  C   UNK N   1     -20.927  24.064 -10.576  0.00  0.00     0.157 A 
HETATM    9  C   UNK N   1     -20.038  24.225 -11.647  0.00  0.00     0.124 A 
HETATM   10  O   UNK N   1     -18.870  23.593 -11.653  0.00  0.00    -0.306 OA
HETATM   11  C   UNK N   1     -18.478  22.792 -10.668  0.00  0.00     0.096 A 
HETATM   12  C   UNK N   1     -19.287  22.607  -9.524  0.00  0.00     0.084 A 
HETATM   13  C   UNK N   1     -17.265  22.107 -10.787  0.00  0.00     0.075 A 
HETATM   14  C   UNK N   1     -20.533  23.267  -9.481  0.00  0.00     0.223 A 
HETATM   15  C   UNK N   1     -18.838  21.753  -8.486  0.00  0.00     0.085 A 
HETATM   16  O   UNK N   1     -21.272  23.133  -8.522  0.00  0.00    -0.284 OA
HETATM   17  C   UNK N   1     -17.617  21.077  -8.625  0.00  0.00     0.074 A 
HETATM   18  C   UNK N   1     -16.838  21.244  -9.778  0.00  0.00     0.071 A 
BRANCH   9  19
HETATM   19  C   UNK N   1     -20.427  24.992 -12.839  0.00  0.00     0.004 A 
HETATM   20  C   UNK N   1     -20.661  26.369 -12.736  0.00  0.00     0.053 A 
HETATM   21  C   UNK N   1     -21.080  27.108 -13.849  0.00  0.00     0.099 A 
HETATM   22  C   UNK N   1     -21.241  26.453 -15.099  0.00  0.00     0.098 A 
HETATM   23  C   UNK N   1     -20.986  25.078 -15.191  0.00  0.00     0.040 A 
HETATM   24  C   UNK N   1     -20.594  24.349 -14.067  0.00  0.00     0.017 A 
BRANCH  21  25
HETATM   25  O   UNK N   1     -21.326  28.428 -13.686  0.00  0.00    -0.358 OA
HETATM   26  H   UNK N   1     -22.203  28.827 -13.731  0.00  0.00     0.218 HD
ENDBRANCH  21  25
BRANCH  22  27
HETATM   27  O   UNK N   1     -21.638  27.105 -16.214  0.00  0.00    -0.358 OA
HETATM   28  H   UNK N   1     -21.679  28.066 -16.295  0.00  0.00     0.218 HD
ENDBRANCH  22  27
ENDBRANCH   9  19
BRANCH  15  29
HETATM   29  O   UNK N   1     -19.577  21.572  -7.370  0.00  0.00    -0.360 OA
HETATM   30  H   UNK N   1     -19.432  22.094  -6.567  0.00  0.00     0.217 HD
ENDBRANCH  15  29
BRANCH  18  31
HETATM   31  O   UNK N   1     -15.677  20.572  -9.924  0.00  0.00    -0.361 OA
HETATM   32  H   UNK N   1     -15.521  19.983 -10.676  0.00  0.00     0.217 HD
ENDBRANCH  18  31
ENDBRANCH   7   8
ENDBRANCH   6   7
BRANCH   5  33
HETATM   33  O   UNK N   1     -23.927  23.101  -9.006  0.00  0.00    -0.388 OA
HETATM   34  H   UNK N   1     -23.828  23.733  -8.245  0.00  0.00     0.210 HD
ENDBRANCH   5  33
BRANCH   2  35
HETATM   35  C   UNK N   1     -25.066  24.951 -14.201  0.00  0.00     0.205 C 
BRANCH  35  36
HETATM   36  O   UNK N   1     -24.258  24.481 -15.263  0.00  0.00    -0.356 OA
BRANCH  36  37
HETATM   37  C   UNK N   1     -25.053  24.073 -16.364  0.00  0.00     0.291 C 
HETATM   38  O   UNK N   1     -24.267  23.520 -17.418  0.00  0.00    -0.351 OA
HETATM   39  C   UNK N   1     -23.327  24.455 -17.938  0.00  0.00     0.152 C 
HETATM   40  C   UNK N   1     -24.044  25.679 -18.561  0.00  0.00     0.178 C 
HETATM   41  C   UNK N   1     -22.479  23.733 -18.988  0.00  0.00     0.042 C 
HETATM   42  C   UNK N   1     -24.940  26.324 -17.489  0.00  0.00     0.183 C 
HETATM   43  C   UNK N   1     -25.886  25.271 -16.879  0.00  0.00     0.204 C 
BRANCH  40  44
HETATM   44  O   UNK N   1     -23.106  26.627 -19.009  0.00  0.00    -0.390 OA
HETATM   45  H   UNK N   1     -22.401  26.698 -18.312  0.00  0.00     0.210 HD
ENDBRANCH  40  44
BRANCH  42  46
HETATM   46  O   UNK N   1     -25.649  27.429 -17.992  0.00  0.00    -0.390 OA
HETATM   47  H   UNK N   1     -25.262  27.664 -18.876  0.00  0.00     0.210 HD
ENDBRANCH  42  46
BRANCH  43  48
HETATM   48  O   UNK N   1     -26.862  24.857 -17.807  0.00  0.00    -0.388 OA
HETATM   49  H   UNK N   1     -26.498  24.948 -18.724  0.00  0.00     0.210 HD
ENDBRANCH  43  48
ENDBRANCH  36  37
ENDBRANCH  35  36
ENDBRANCH   2  35
BRANCH   4  50
HETATM   50  O   UNK N   1     -26.667  23.253  -9.804  0.00  0.00    -0.390 OA
HETATM   51  H   UNK N   1     -26.245  23.207  -8.907  0.00  0.00     0.210 HD
ENDBRANCH   4  50
BRANCH   3  52
HETATM   52  O   UNK N   1     -27.131  23.487 -12.639  0.00  0.00    -0.390 OA
HETATM   53  H   UNK N   1     -26.880  23.304 -13.582  0.00  0.00     0.210 HD
ENDBRANCH   3  52
TORSDOF 16
ENDMDL
MODEL 5
REMARK VINA RESULT:      -7.5      1.793      4.667
REMARK  16 active torsions:
REMARK  status: ('A' for Active; 'I' for Inactive)
REMARK    1  A    between atoms: O_2  and  C_22 
REMARK    2  A    between atoms: O_2  and  C_26 
REMARK    3  A    between atoms: O_4  and  C_18 
REMARK    4  A    between atoms: O_5  and  C_19 
REMARK    5  A    between atoms: O_6  and  C_25 
REMARK    6  A    between atoms: O_6  and  C_29 
REMARK    7  A    between atoms: O_7  and  C_20 
REMARK    8  A    between atoms: O_8  and  C_21 
REMARK    9  A    between atoms: O_9  and  C_23 
REMARK   10  A    between atoms: O_10  and  C_24 
REMARK   11  A    between atoms: O_13  and  C_35 
REMARK   12  A    between atoms: O_14  and  C_40 
REMARK   13  A    between atoms: O_15  and  C_41 
REMARK   14  A    between atoms: O_16  and  C_43 
REMARK   15  A    between atoms: C_17  and  C_26 
REMARK   16  A    between atoms: C_30  and  C_33 
ROOT
HETATM    1  O   UNK N   1     -22.124  24.674 -16.896  0.00  0.00    -0.348 OA
HETATM    2  C   UNK N   1     -23.090  24.377 -17.878  0.00  0.00     0.180 C 
HETATM    3  C   UNK N   1     -22.467  23.454 -18.951  0.00  0.00     0.180 C 
HETATM    4  C   UNK N   1     -21.255  24.168 -19.588  0.00  0.00     0.183 C 
HETATM    5  C   UNK N   1     -20.282  24.595 -18.470  0.00  0.00     0.205 C 
HETATM    6  C   UNK N   1     -21.034  25.422 -17.406  0.00  0.00     0.298 C 
ENDROOT
BRANCH   6   7
HETATM    7  O   UNK N   1     -20.186  25.673 -16.341  0.00  0.00    -0.311 OA
BRANCH   7   8
HETATM    8  C   UNK N   1     -19.954  24.740 -15.376  0.00  0.00     0.157 A 
HETATM    9  C   UNK N   1     -20.654  24.824 -14.165  0.00  0.00     0.124 A 
HETATM   10  O   UNK N   1     -20.369  23.999 -13.164  0.00  0.00    -0.306 OA
HETATM   11  C   UNK N   1     -19.428  23.064 -13.245  0.00  0.00     0.096 A 
HETATM   12  C   UNK N   1     -18.704  22.872 -14.443  0.00  0.00     0.084 A 
HETATM   13  C   UNK N   1     -19.142  22.286 -12.119  0.00  0.00     0.075 A 
HETATM   14  C   UNK N   1     -18.984  23.727 -15.530  0.00  0.00     0.223 A 
HETATM   15  C   UNK N   1     -17.713  21.860 -14.502  0.00  0.00     0.085 A 
HETATM   16  O   UNK N   1     -18.381  23.610 -16.581  0.00  0.00    -0.284 OA
HETATM   17  C   UNK N   1     -17.442  21.090 -13.361  0.00  0.00     0.074 A 
HETATM   18  C   UNK N   1     -18.145  21.310 -12.169  0.00  0.00     0.071 A 
BRANCH   9  19
HETATM   19  C   UNK N   1     -21.628  25.900 -13.932  0.00  0.00     0.004 A 
HETATM   20  C   UNK N   1     -21.192  27.228 -13.845  0.00  0.00     0.053 A 
HETATM   21  C   UNK N   1     -22.098  28.261 -13.575  0.00  0.00     0.099 A 
HETATM   22  C   UNK N   1     -23.475  27.955 -13.415  0.00  0.00     0.098 A 
HETATM   23  C   UNK N   1     -23.899  26.624 -13.522  0.00  0.00     0.040 A 
HETATM   24  C   UNK N   1     -22.982  25.600 -13.766  0.00  0.00     0.017 A 
BRANCH  21  25
HETATM   25  O   UNK N   1     -21.619  29.521 -13.467  0.00  0.00    -0.358 OA
HETATM   26  H   UNK N   1     -22.151  30.286 -13.219  0.00  0.00     0.218 HD
ENDBRANCH  21  25
BRANCH  22  27
HETATM   27  O   UNK N   1     -24.405  28.902 -13.157  0.00  0.00    -0.358 OA
HETATM   28  H   UNK N   1     -24.352  29.528 -12.424  0.00  0.00     0.218 HD
ENDBRANCH  22  27
ENDBRANCH   9  19
BRANCH  15  29
HETATM   29  O   UNK N   1     -17.018  21.637 -15.638  0.00  0.00    -0.360 OA
HETATM   30  H   UNK N   1     -16.120  21.277 -15.628  0.00  0.00     0.217 HD
ENDBRANCH  15  29
BRANCH  18  31
HETATM   31  O   UNK N   1     -17.865  20.589 -11.065  0.00  0.00    -0.361 OA
HETATM   32  H   UNK N   1     -18.139  19.664 -10.978  0.00  0.00     0.217 HD
ENDBRANCH  18  31
ENDBRANCH   7   8
ENDBRANCH   6   7
BRANCH   5  33
HETATM   33  O   UNK N   1     -19.186  25.305 -18.990  0.00  0.00    -0.388 OA
HETATM   34  H   UNK N   1     -19.538  25.960 -19.650  0.00  0.00     0.210 HD
ENDBRANCH   5  33
BRANCH   2  35
HETATM   35  C   UNK N   1     -24.265  23.717 -17.148  0.00  0.00     0.205 C 
BRANCH  35  36
HETATM   36  O   UNK N   1     -25.210  24.712 -16.803  0.00  0.00    -0.356 OA
BRANCH  36  37
HETATM   37  C   UNK N   1     -25.560  25.493 -17.933  0.00  0.00     0.291 C 
HETATM   38  O   UNK N   1     -24.991  26.800 -17.879  0.00  0.00    -0.351 OA
HETATM   39  C   UNK N   1     -25.434  27.535 -16.742  0.00  0.00     0.152 C 
HETATM   40  C   UNK N   1     -26.967  27.757 -16.784  0.00  0.00     0.178 C 
HETATM   41  C   UNK N   1     -24.694  28.875 -16.732  0.00  0.00     0.042 C 
HETATM   42  C   UNK N   1     -27.661  26.386 -16.870  0.00  0.00     0.183 C 
HETATM   43  C   UNK N   1     -27.099  25.576 -18.055  0.00  0.00     0.204 C 
BRANCH  40  44
HETATM   44  O   UNK N   1     -27.403  28.422 -15.624  0.00  0.00    -0.390 OA
HETATM   45  H   UNK N   1     -26.741  28.233 -14.907  0.00  0.00     0.210 HD
ENDBRANCH  40  44
BRANCH  42  46
HETATM   46  O   UNK N   1     -29.060  26.509 -16.942  0.00  0.00    -0.390 OA
HETATM   47  H   UNK N   1     -29.296  26.775 -17.869  0.00  0.00     0.210 HD
ENDBRANCH  42  46
BRANCH  43  48
HETATM   48  O   UNK N   1     -27.489  26.132 -19.289  0.00  0.00    -0.388 OA
HETATM   49  H   UNK N   1     -26.699  26.545 -19.723  0.00  0.00     0.210 HD
ENDBRANCH  43  48
ENDBRANCH  36  37
ENDBRANCH  35  36
ENDBRANCH   2  35
BRANCH   4  50
HETATM   50  O   UNK N   1     -20.592  23.314 -20.483  0.00  0.00    -0.390 OA
HETATM   51  H   UNK N   1     -20.809  22.385 -20.209  0.00  0.00     0.210 HD
ENDBRANCH   4  50
BRANCH   3  52
HETATM   52  O   UNK N   1     -23.412  23.096 -19.929  0.00  0.00    -0.390 OA
HETATM   53  H   UNK N   1     -24.069  22.486 -19.502  0.00  0.00     0.210 HD
ENDBRANCH   3  52
TORSDOF 16
ENDMDL
MODEL 6
REMARK VINA RESULT:      -7.5      1.626      4.519
REMARK  16 active torsions:
REMARK  status: ('A' for Active; 'I' for Inactive)
REMARK    1  A    between atoms: O_2  and  C_22 
REMARK    2  A    between atoms: O_2  and  C_26 
REMARK    3  A    between atoms: O_4  and  C_18 
REMARK    4  A    between atoms: O_5  and  C_19 
REMARK    5  A    between atoms: O_6  and  C_25 
REMARK    6  A    between atoms: O_6  and  C_29 
REMARK    7  A    between atoms: O_7  and  C_20 
REMARK    8  A    between atoms: O_8  and  C_21 
REMARK    9  A    between atoms: O_9  and  C_23 
REMARK   10  A    between atoms: O_10  and  C_24 
REMARK   11  A    between atoms: O_13  and  C_35 
REMARK   12  A    between atoms: O_14  and  C_40 
REMARK   13  A    between atoms: O_15  and  C_41 
REMARK   14  A    between atoms: O_16  and  C_43 
REMARK   15  A    between atoms: C_17  and  C_26 
REMARK   16  A    between atoms: C_30  and  C_33 
ROOT
HETATM    1  O   UNK N   1     -23.761  27.589 -16.303  0.00  0.00    -0.348 OA
HETATM    2  C   UNK N   1     -23.724  28.955 -16.646  0.00  0.00     0.180 C 
HETATM    3  C   UNK N   1     -23.778  29.103 -18.184  0.00  0.00     0.180 C 
HETATM    4  C   UNK N   1     -22.575  28.361 -18.805  0.00  0.00     0.183 C 
HETATM    5  C   UNK N   1     -22.573  26.903 -18.302  0.00  0.00     0.205 C 
HETATM    6  C   UNK N   1     -22.624  26.877 -16.760  0.00  0.00     0.298 C 
ENDROOT
BRANCH   6   7
HETATM    7  O   UNK N   1     -22.769  25.569 -16.330  0.00  0.00    -0.311 OA
BRANCH   7   8
HETATM    8  C   UNK N   1     -21.985  25.048 -15.346  0.00  0.00     0.157 A 
HETATM    9  C   UNK N   1     -22.414  25.138 -14.015  0.00  0.00     0.124 A 
HETATM   10  O   UNK N   1     -21.623  24.742 -13.024  0.00  0.00    -0.306 OA
HETATM   11  C   UNK N   1     -20.407  24.246 -13.226  0.00  0.00     0.096 A 
HETATM   12  C   UNK N   1     -19.908  24.071 -14.537  0.00  0.00     0.084 A 
HETATM   13  C   UNK N   1     -19.611  23.922 -12.124  0.00  0.00     0.075 A 
HETATM   14  C   UNK N   1     -20.724  24.476 -15.614  0.00  0.00     0.223 A 
HETATM   15  C   UNK N   1     -18.611  23.532 -14.721  0.00  0.00     0.085 A 
HETATM   16  O   UNK N   1     -20.337  24.358 -16.763  0.00  0.00    -0.284 OA
HETATM   17  C   UNK N   1     -17.829  23.212 -13.601  0.00  0.00     0.074 A 
HETATM   18  C   UNK N   1     -18.322  23.418 -12.306  0.00  0.00     0.071 A 
BRANCH   9  19
HETATM   19  C   UNK N   1     -23.692  25.782 -13.678  0.00  0.00     0.004 A 
HETATM   20  C   UNK N   1     -24.897  25.191 -14.073  0.00  0.00     0.053 A 
HETATM   21  C   UNK N   1     -26.122  25.815 -13.805  0.00  0.00     0.099 A 
HETATM   22  C   UNK N   1     -26.135  27.048 -13.101  0.00  0.00     0.098 A 
HETATM   23  C   UNK N   1     -24.922  27.619 -12.696  0.00  0.00     0.040 A 
HETATM   24  C   UNK N   1     -23.707  26.999 -12.992  0.00  0.00     0.017 A 
BRANCH  21  25
HETATM   25  O   UNK N   1     -27.254  25.216 -14.240  0.00  0.00    -0.358 OA
HETATM   26  H   UNK N   1     -27.735  25.476 -15.034  0.00  0.00     0.218 HD
ENDBRANCH  21  25
BRANCH  22  27
HETATM   27  O   UNK N   1     -27.280  27.702 -12.805  0.00  0.00    -0.358 OA
HETATM   28  H   UNK N   1     -27.711  28.334 -13.393  0.00  0.00     0.218 HD
ENDBRANCH  22  27
ENDBRANCH   9  19
BRANCH  15  29
HETATM   29  O   UNK N   1     -18.113  23.333 -15.961  0.00  0.00    -0.360 OA
HETATM   30  H   UNK N   1     -18.442  22.630 -16.540  0.00  0.00     0.217 HD
ENDBRANCH  15  29
BRANCH  18  31
HETATM   31  O   UNK N   1     -17.560  23.137 -11.229  0.00  0.00    -0.361 OA
HETATM   32  H   UNK N   1     -16.652  23.461 -11.150  0.00  0.00     0.217 HD
ENDBRANCH  18  31
ENDBRANCH   7   8
ENDBRANCH   6   7
BRANCH   5  33
HETATM   33  O   UNK N   1     -21.460  26.196 -18.790  0.00  0.00    -0.388 OA
HETATM   34  H   UNK N   1     -20.707  26.350 -18.161  0.00  0.00     0.210 HD
ENDBRANCH   5  33
BRANCH   2  35
HETATM   35  C   UNK N   1     -24.924  29.610 -15.952  0.00  0.00     0.205 C 
BRANCH  35  36
HETATM   36  O   UNK N   1     -26.036  29.577 -16.827  0.00  0.00    -0.356 OA
BRANCH  36  37
HETATM   37  C   UNK N   1     -27.090  28.804 -16.279  0.00  0.00     0.291 C 
HETATM   38  O   UNK N   1     -26.850  27.403 -16.405  0.00  0.00    -0.351 OA
HETATM   39  C   UNK N   1     -26.732  26.996 -17.765  0.00  0.00     0.152 C 
HETATM   40  C   UNK N   1     -28.046  27.258 -18.542  0.00  0.00     0.178 C 
HETATM   41  C   UNK N   1     -26.382  25.506 -17.780  0.00  0.00     0.042 C 
HETATM   42  C   UNK N   1     -28.393  28.753 -18.434  0.00  0.00     0.183 C 
HETATM   43  C   UNK N   1     -28.426  29.189 -16.955  0.00  0.00     0.204 C 
BRANCH  40  44
HETATM   44  O   UNK N   1     -27.896  26.918 -19.899  0.00  0.00    -0.390 OA
HETATM   45  H   UNK N   1     -28.308  27.646 -20.434  0.00  0.00     0.210 HD
ENDBRANCH  40  44
BRANCH  42  46
HETATM   46  O   UNK N   1     -29.596  29.063 -19.093  0.00  0.00    -0.390 OA
HETATM   47  H   UNK N   1     -29.498  28.803 -20.046  0.00  0.00     0.210 HD
ENDBRANCH  42  46
BRANCH  43  48
HETATM   48  O   UNK N   1     -29.527  28.625 -16.278  0.00  0.00    -0.388 OA
HETATM   49  H   UNK N   1     -30.319  29.209 -16.403  0.00  0.00     0.210 HD
ENDBRANCH  43  48
ENDBRANCH  36  37
ENDBRANCH  35  36
ENDBRANCH   2  35
BRANCH   4  50
HETATM   50  O   UNK N   1     -22.655  28.373 -20.206  0.00  0.00    -0.390 OA
HETATM   51  H   UNK N   1     -22.450  27.451 -20.514  0.00  0.00     0.210 HD
ENDBRANCH   4  50
BRANCH   3  52
HETATM   52  O   UNK N   1     -23.790  30.455 -18.569  0.00  0.00    -0.390 OA
HETATM   53  H   UNK N   1     -24.181  30.977 -17.819  0.00  0.00     0.210 HD
ENDBRANCH   3  52
TORSDOF 16
ENDMDL
MODEL 7
REMARK VINA RESULT:      -7.5      1.629      2.318
REMARK  16 active torsions:
REMARK  status: ('A' for Active; 'I' for Inactive)
REMARK    1  A    between atoms: O_2  and  C_22 
REMARK    2  A    between atoms: O_2  and  C_26 
REMARK    3  A    between atoms: O_4  and  C_18 
REMARK    4  A    between atoms: O_5  and  C_19 
REMARK    5  A    between atoms: O_6  and  C_25 
REMARK    6  A    between atoms: O_6  and  C_29 
REMARK    7  A    between atoms: O_7  and  C_20 
REMARK    8  A    between atoms: O_8  and  C_21 
REMARK    9  A    between atoms: O_9  and  C_23 
REMARK   10  A    between atoms: O_10  and  C_24 
REMARK   11  A    between atoms: O_13  and  C_35 
REMARK   12  A    between atoms: O_14  and  C_40 
REMARK   13  A    between atoms: O_15  and  C_41 
REMARK   14  A    between atoms: O_16  and  C_43 
REMARK   15  A    between atoms: C_17  and  C_26 
REMARK   16  A    between atoms: C_30  and  C_33 
ROOT
HETATM    1  O   UNK N   1     -22.745  25.868 -13.782  0.00  0.00    -0.348 OA
HETATM    2  C   UNK N   1     -24.101  25.831 -13.404  0.00  0.00     0.180 C 
HETATM    3  C   UNK N   1     -24.453  27.115 -12.617  0.00  0.00     0.180 C 
HETATM    4  C   UNK N   1     -23.549  27.204 -11.369  0.00  0.00     0.183 C 
HETATM    5  C   UNK N   1     -22.075  27.109 -11.811  0.00  0.00     0.205 C 
HETATM    6  C   UNK N   1     -21.864  25.846 -12.672  0.00  0.00     0.298 C 
ENDROOT
BRANCH   6   7
HETATM    7  O   UNK N   1     -20.576  25.851 -13.181  0.00  0.00    -0.311 OA
BRANCH   7   8
HETATM    8  C   UNK N   1     -19.798  24.733 -13.169  0.00  0.00     0.157 A 
HETATM    9  C   UNK N   1     -19.402  24.165 -14.387  0.00  0.00     0.124 A 
HETATM   10  O   UNK N   1     -18.740  23.014 -14.410  0.00  0.00    -0.306 OA
HETATM   11  C   UNK N   1     -18.416  22.346 -13.308  0.00  0.00     0.096 A 
HETATM   12  C   UNK N   1     -18.729  22.866 -12.032  0.00  0.00     0.084 A 
HETATM   13  C   UNK N   1     -17.783  21.106 -13.425  0.00  0.00     0.075 A 
HETATM   14  C   UNK N   1     -19.428  24.089 -11.969  0.00  0.00     0.223 A 
HETATM   15  C   UNK N   1     -18.363  22.134 -10.875  0.00  0.00     0.085 A 
HETATM   16  O   UNK N   1     -19.732  24.575 -10.894  0.00  0.00    -0.284 OA
HETATM   17  C   UNK N   1     -17.727  20.891 -11.014  0.00  0.00     0.074 A 
HETATM   18  C   UNK N   1     -17.449  20.372 -12.286  0.00  0.00     0.071 A 
BRANCH   9  19
HETATM   19  C   UNK N   1     -19.816  24.763 -15.665  0.00  0.00     0.004 A 
HETATM   20  C   UNK N   1     -21.011  24.356 -16.271  0.00  0.00     0.053 A 
HETATM   21  C   UNK N   1     -21.397  24.877 -17.511  0.00  0.00     0.099 A 
HETATM   22  C   UNK N   1     -20.577  25.848 -18.144  0.00  0.00     0.098 A 
HETATM   23  C   UNK N   1     -19.393  26.259 -17.518  0.00  0.00     0.040 A 
HETATM   24  C   UNK N   1     -19.007  25.712 -16.293  0.00  0.00     0.017 A 
BRANCH  21  25
HETATM   25  O   UNK N   1     -22.544  24.423 -18.068  0.00  0.00    -0.358 OA
HETATM   26  H   UNK N   1     -23.061  24.910 -18.721  0.00  0.00     0.218 HD
ENDBRANCH  21  25
BRANCH  22  27
HETATM   27  O   UNK N   1     -20.891  26.396 -19.340  0.00  0.00    -0.358 OA
HETATM   28  H   UNK N   1     -20.585  26.057 -20.189  0.00  0.00     0.218 HD
ENDBRANCH  22  27
ENDBRANCH   9  19
BRANCH  15  29
HETATM   29  O   UNK N   1     -18.629  22.612  -9.640  0.00  0.00    -0.360 OA
HETATM   30  H   UNK N   1     -19.320  23.272  -9.483  0.00  0.00     0.217 HD
ENDBRANCH  15  29
BRANCH  18  31
HETATM   31  O   UNK N   1     -16.863  19.165 -12.420  0.00  0.00    -0.361 OA
HETATM   32  H   UNK N   1     -16.634  18.622 -11.652  0.00  0.00     0.217 HD
ENDBRANCH  18  31
ENDBRANCH   7   8
ENDBRANCH   6   7
BRANCH   5  33
HETATM   33  O   UNK N   1     -21.208  27.124 -10.704  0.00  0.00    -0.388 OA
HETATM   34  H   UNK N   1     -21.546  26.458 -10.048  0.00  0.00     0.210 HD
ENDBRANCH   5  33
BRANCH   2  35
HETATM   35  C   UNK N   1     -24.911  25.697 -14.699  0.00  0.00     0.205 C 
BRANCH  35  36
HETATM   36  O   UNK N   1     -25.192  26.991 -15.201  0.00  0.00    -0.356 OA
BRANCH  36  37
HETATM   37  C   UNK N   1     -24.993  27.045 -16.603  0.00  0.00     0.291 C 
HETATM   38  O   UNK N   1     -25.600  28.196 -17.188  0.00  0.00    -0.351 OA
HETATM   39  C   UNK N   1     -27.010  28.222 -16.990  0.00  0.00     0.152 C 
HETATM   40  C   UNK N   1     -27.691  27.009 -17.673  0.00  0.00     0.178 C 
HETATM   41  C   UNK N   1     -27.541  29.536 -17.568  0.00  0.00     0.042 C 
HETATM   42  C   UNK N   1     -27.071  25.716 -17.114  0.00  0.00     0.183 C 
HETATM   43  C   UNK N   1     -25.537  25.753 -17.258  0.00  0.00     0.204 C 
BRANCH  40  44
HETATM   44  O   UNK N   1     -29.074  27.006 -17.413  0.00  0.00    -0.390 OA
HETATM   45  H   UNK N   1     -29.247  26.297 -16.739  0.00  0.00     0.210 HD
ENDBRANCH  40  44
BRANCH  42  46
HETATM   46  O   UNK N   1     -27.620  24.568 -17.712  0.00  0.00    -0.390 OA
HETATM   47  H   UNK N   1     -27.756  24.761 -18.677  0.00  0.00     0.210 HD
ENDBRANCH  42  46
BRANCH  43  48
HETATM   48  O   UNK N   1     -25.145  25.657 -18.608  0.00  0.00    -0.388 OA
HETATM   49  H   UNK N   1     -24.598  26.449 -18.846  0.00  0.00     0.210 HD
ENDBRANCH  43  48
ENDBRANCH  36  37
ENDBRANCH  35  36
ENDBRANCH   2  35
BRANCH   4  50
HETATM   50  O   UNK N   1     -23.757  28.417 -10.693  0.00  0.00    -0.390 OA
HETATM   51  H   UNK N   1     -24.463  28.251 -10.015  0.00  0.00     0.210 HD
ENDBRANCH   4  50
BRANCH   3  52
HETATM   52  O   UNK N   1     -25.812  27.140 -12.259  0.00  0.00    -0.390 OA
HETATM   53  H   UNK N   1     -26.233  26.316 -12.620  0.00  0.00     0.210 HD
ENDBRANCH   3  52
TORSDOF 16
ENDMDL
MODEL 8
REMARK VINA RESULT:      -7.4      1.837      6.133
REMARK  16 active torsions:
REMARK  status: ('A' for Active; 'I' for Inactive)
REMARK    1  A    between atoms: O_2  and  C_22 
REMARK    2  A    between atoms: O_2  and  C_26 
REMARK    3  A    between atoms: O_4  and  C_18 
REMARK    4  A    between atoms: O_5  and  C_19 
REMARK    5  A    between atoms: O_6  and  C_25 
REMARK    6  A    between atoms: O_6  and  C_29 
REMARK    7  A    between atoms: O_7  and  C_20 
REMARK    8  A    between atoms: O_8  and  C_21 
REMARK    9  A    between atoms: O_9  and  C_23 
REMARK   10  A    between atoms: O_10  and  C_24 
REMARK   11  A    between atoms: O_13  and  C_35 
REMARK   12  A    between atoms: O_14  and  C_40 
REMARK   13  A    between atoms: O_15  and  C_41 
REMARK   14  A    between atoms: O_16  and  C_43 
REMARK   15  A    between atoms: C_17  and  C_26 
REMARK   16  A    between atoms: C_30  and  C_33 
ROOT
HETATM    1  O   UNK N   1     -22.129  24.303 -16.566  0.00  0.00    -0.348 OA
HETATM    2  C   UNK N   1     -23.025  24.349 -17.652  0.00  0.00     0.180 C 
HETATM    3  C   UNK N   1     -22.429  23.568 -18.846  0.00  0.00     0.180 C 
HETATM    4  C   UNK N   1     -21.077  24.201 -19.238  0.00  0.00     0.183 C 
HETATM    5  C   UNK N   1     -20.170  24.254 -17.992  0.00  0.00     0.205 C 
HETATM    6  C   UNK N   1     -20.904  24.963 -16.836  0.00  0.00     0.298 C 
ENDROOT
BRANCH   6   7
HETATM    7  O   UNK N   1     -20.138  24.874 -15.686  0.00  0.00    -0.311 OA
BRANCH   7   8
HETATM    8  C   UNK N   1     -20.512  25.485 -14.527  0.00  0.00     0.157 A 
HETATM    9  C   UNK N   1     -20.136  24.915 -13.304  0.00  0.00     0.124 A 
HETATM   10  O   UNK N   1     -20.579  25.422 -12.159  0.00  0.00    -0.306 OA
HETATM   11  C   UNK N   1     -21.385  26.477 -12.102  0.00  0.00     0.096 A 
HETATM   12  C   UNK N   1     -21.778  27.149 -13.282  0.00  0.00     0.084 A 
HETATM   13  C   UNK N   1     -21.865  26.901 -10.860  0.00  0.00     0.075 A 
HETATM   14  C   UNK N   1     -21.321  26.641 -14.516  0.00  0.00     0.223 A 
HETATM   15  C   UNK N   1     -22.631  28.276 -13.188  0.00  0.00     0.085 A 
HETATM   16  O   UNK N   1     -21.640  27.177 -15.562  0.00  0.00    -0.284 OA
HETATM   17  C   UNK N   1     -23.100  28.687 -11.931  0.00  0.00     0.074 A 
HETATM   18  C   UNK N   1     -22.728  27.994 -10.771  0.00  0.00     0.071 A 
BRANCH   9  19
HETATM   19  C   UNK N   1     -19.347  23.675 -13.264  0.00  0.00     0.004 A 
HETATM   20  C   UNK N   1     -18.553  23.317 -14.360  0.00  0.00     0.053 A 
HETATM   21  C   UNK N   1     -17.834  22.115 -14.360  0.00  0.00     0.099 A 
HETATM   22  C   UNK N   1     -17.894  21.268 -13.222  0.00  0.00     0.098 A 
HETATM   23  C   UNK N   1     -18.679  21.647 -12.125  0.00  0.00     0.040 A 
HETATM   24  C   UNK N   1     -19.411  22.836 -12.149  0.00  0.00     0.017 A 
BRANCH  21  25
HETATM   25  O   UNK N   1     -17.110  21.803 -15.459  0.00  0.00    -0.358 OA
HETATM   26  H   UNK N   1     -16.326  22.284 -15.749  0.00  0.00     0.218 HD
ENDBRANCH  21  25
BRANCH  22  27
HETATM   27  O   UNK N   1     -17.222  20.097 -13.153  0.00  0.00    -0.358 OA
HETATM   28  H   UNK N   1     -16.386  19.924 -13.601  0.00  0.00     0.218 HD
ENDBRANCH  22  27
ENDBRANCH   9  19
BRANCH  15  29
HETATM   29  O   UNK N   1     -23.008  28.954 -14.294  0.00  0.00    -0.360 OA
HETATM   30  H   UNK N   1     -22.393  29.133 -15.020  0.00  0.00     0.217 HD
ENDBRANCH  15  29
BRANCH  18  31
HETATM   31  O   UNK N   1     -23.201  28.372  -9.566  0.00  0.00    -0.361 OA
HETATM   32  H   UNK N   1     -23.916  29.018  -9.479  0.00  0.00     0.217 HD
ENDBRANCH  18  31
ENDBRANCH   7   8
ENDBRANCH   6   7
BRANCH   5  33
HETATM   33  O   UNK N   1     -18.943  24.879 -18.280  0.00  0.00    -0.388 OA
HETATM   34  H   UNK N   1     -18.268  24.164 -18.424  0.00  0.00     0.210 HD
ENDBRANCH   5  33
BRANCH   2  35
HETATM   35  C   UNK N   1     -24.343  23.743 -17.155  0.00  0.00     0.205 C 
BRANCH  35  36
HETATM   36  O   UNK N   1     -25.415  24.561 -17.584  0.00  0.00    -0.356 OA
BRANCH  36  37
HETATM   37  C   UNK N   1     -25.984  25.265 -16.494  0.00  0.00     0.291 C 
HETATM   38  O   UNK N   1     -27.261  25.815 -16.817  0.00  0.00    -0.351 OA
HETATM   39  C   UNK N   1     -27.190  26.747 -17.892  0.00  0.00     0.152 C 
HETATM   40  C   UNK N   1     -26.303  27.961 -17.521  0.00  0.00     0.178 C 
HETATM   41  C   UNK N   1     -28.617  27.197 -18.217  0.00  0.00     0.042 C 
HETATM   42  C   UNK N   1     -24.905  27.451 -17.130  0.00  0.00     0.183 C 
HETATM   43  C   UNK N   1     -25.016  26.378 -16.029  0.00  0.00     0.204 C 
BRANCH  40  44
HETATM   44  O   UNK N   1     -26.184  28.841 -18.612  0.00  0.00    -0.390 OA
HETATM   45  H   UNK N   1     -26.787  28.507 -19.328  0.00  0.00     0.210 HD
ENDBRANCH  40  44
BRANCH  42  46
HETATM   46  O   UNK N   1     -24.050  28.499 -16.750  0.00  0.00    -0.390 OA
HETATM   47  H   UNK N   1     -23.124  28.245 -17.003  0.00  0.00     0.210 HD
ENDBRANCH  42  46
BRANCH  43  48
HETATM   48  O   UNK N   1     -25.429  26.940 -14.804  0.00  0.00    -0.388 OA
HETATM   49  H   UNK N   1     -25.235  26.301 -14.071  0.00  0.00     0.210 HD
ENDBRANCH  43  48
ENDBRANCH  36  37
ENDBRANCH  35  36
ENDBRANCH   2  35
BRANCH   4  50
HETATM   50  O   UNK N   1     -20.449  23.446 -20.242  0.00  0.00    -0.390 OA
HETATM   51  H   UNK N   1     -20.369  24.036 -21.037  0.00  0.00     0.210 HD
ENDBRANCH   4  50
BRANCH   3  52
HETATM   52  O   UNK N   1     -23.314  23.550 -19.939  0.00  0.00    -0.390 OA
HETATM   53  H   UNK N   1     -23.187  24.397 -20.441  0.00  0.00     0.210 HD
ENDBRANCH   3  52
TORSDOF 16
ENDMDL
MODEL 9
REMARK VINA RESULT:      -7.3     11.262     16.991
REMARK  16 active torsions:
REMARK  status: ('A' for Active; 'I' for Inactive)
REMARK    1  A    between atoms: O_2  and  C_22 
REMARK    2  A    between atoms: O_2  and  C_26 
REMARK    3  A    between atoms: O_4  and  C_18 
REMARK    4  A    between atoms: O_5  and  C_19 
REMARK    5  A    between atoms: O_6  and  C_25 
REMARK    6  A    between atoms: O_6  and  C_29 
REMARK    7  A    between atoms: O_7  and  C_20 
REMARK    8  A    between atoms: O_8  and  C_21 
REMARK    9  A    between atoms: O_9  and  C_23 
REMARK   10  A    between atoms: O_10  and  C_24 
REMARK   11  A    between atoms: O_13  and  C_35 
REMARK   12  A    between atoms: O_14  and  C_40 
REMARK   13  A    between atoms: O_15  and  C_41 
REMARK   14  A    between atoms: O_16  and  C_43 
REMARK   15  A    between atoms: C_17  and  C_26 
REMARK   16  A    between atoms: C_30  and  C_33 
ROOT
HETATM    1  O   UNK N   1     -12.669  18.100  -4.818  0.00  0.00    -0.348 OA
HETATM    2  C   UNK N   1     -14.023  17.719  -4.747  0.00  0.00     0.180 C 
HETATM    3  C   UNK N   1     -14.259  16.890  -3.462  0.00  0.00     0.180 C 
HETATM    4  C   UNK N   1     -13.351  15.642  -3.494  0.00  0.00     0.183 C 
HETATM    5  C   UNK N   1     -11.891  16.091  -3.706  0.00  0.00     0.205 C 
HETATM    6  C   UNK N   1     -11.794  16.994  -4.954  0.00  0.00     0.298 C 
ENDROOT
BRANCH   6   7
HETATM    7  O   UNK N   1     -10.511  17.505  -5.047  0.00  0.00    -0.311 OA
BRANCH   7   8
HETATM    8  C   UNK N   1      -9.874  17.626  -6.246  0.00  0.00     0.157 A 
HETATM    9  C   UNK N   1      -9.244  18.837  -6.564  0.00  0.00     0.124 A 
HETATM   10  O   UNK N   1      -8.713  19.024  -7.767  0.00  0.00    -0.306 OA
HETATM   11  C   UNK N   1      -8.742  18.099  -8.720  0.00  0.00     0.096 A 
HETATM   12  C   UNK N   1      -9.311  16.829  -8.475  0.00  0.00     0.084 A 
HETATM   13  C   UNK N   1      -8.225  18.405  -9.982  0.00  0.00     0.075 A 
HETATM   14  C   UNK N   1      -9.880  16.592  -7.206  0.00  0.00     0.223 A 
HETATM   15  C   UNK N   1      -9.319  15.860  -9.509  0.00  0.00     0.085 A 
HETATM   16  O   UNK N   1     -10.394  15.518  -6.947  0.00  0.00    -0.284 OA
HETATM   17  C   UNK N   1      -8.794  16.187 -10.768  0.00  0.00     0.074 A 
HETATM   18  C   UNK N   1      -8.260  17.459 -11.008  0.00  0.00     0.071 A 
BRANCH   9  19
HETATM   19  C   UNK N   1      -9.265  19.965  -5.622  0.00  0.00     0.004 A 
HETATM   20  C   UNK N   1      -8.240  20.107  -4.680  0.00  0.00     0.053 A 
HETATM   21  C   UNK N   1      -8.269  21.147  -3.743  0.00  0.00     0.099 A 
HETATM   22  C   UNK N   1      -9.339  22.080  -3.771  0.00  0.00     0.098 A 
HETATM   23  C   UNK N   1     -10.349  21.936  -4.731  0.00  0.00     0.040 A 
HETATM   24  C   UNK N   1     -10.321  20.880  -5.643  0.00  0.00     0.017 A 
BRANCH  21  25
HETATM   25  O   UNK N   1      -7.270  21.217  -2.833  0.00  0.00    -0.358 OA
HETATM   26  H   UNK N   1      -7.298  21.761  -2.037  0.00  0.00     0.218 HD
ENDBRANCH  21  25
BRANCH  22  27
HETATM   27  O   UNK N   1      -9.427  23.110  -2.900  0.00  0.00    -0.358 OA
HETATM   28  H   UNK N   1      -9.145  24.012  -3.096  0.00  0.00     0.218 HD
ENDBRANCH  22  27
ENDBRANCH   9  19
BRANCH  15  29
HETATM   29  O   UNK N   1      -9.837  14.629  -9.301  0.00  0.00    -0.360 OA
HETATM   30  H   UNK N   1     -10.787  14.484  -9.190  0.00  0.00     0.217 HD
ENDBRANCH  15  29
BRANCH  18  31
HETATM   31  O   UNK N   1      -7.780  17.782 -12.227  0.00  0.00    -0.361 OA
HETATM   32  H   UNK N   1      -7.447  18.670 -12.424  0.00  0.00     0.217 HD
ENDBRANCH  18  31
ENDBRANCH   7   8
ENDBRANCH   6   7
BRANCH   5  33
HETATM   33  O   UNK N   1     -11.026  14.987  -3.804  0.00  0.00    -0.388 OA
HETATM   34  H   UNK N   1     -10.142  15.265  -3.446  0.00  0.00     0.210 HD
ENDBRANCH   5  33
BRANCH   2  35
HETATM   35  C   UNK N   1     -14.842  19.015  -4.765  0.00  0.00     0.205 C 
BRANCH  35  36
HETATM   36  O   UNK N   1     -15.093  19.381  -6.109  0.00  0.00    -0.356 OA
BRANCH  36  37
HETATM   37  C   UNK N   1     -16.195  18.661  -6.634  0.00  0.00     0.291 C 
HETATM   38  O   UNK N   1     -16.251  18.727  -8.058  0.00  0.00    -0.351 OA
HETATM   39  C   UNK N   1     -16.395  20.063  -8.531  0.00  0.00     0.152 C 
HETATM   40  C   UNK N   1     -17.724  20.689  -8.039  0.00  0.00     0.178 C 
HETATM   41  C   UNK N   1     -16.347  20.028 -10.060  0.00  0.00     0.042 C 
HETATM   42  C   UNK N   1     -17.757  20.632  -6.501  0.00  0.00     0.183 C 
HETATM   43  C   UNK N   1     -17.508  19.191  -6.014  0.00  0.00     0.204 C 
BRANCH  40  44
HETATM   44  O   UNK N   1     -17.824  22.030  -8.452  0.00  0.00    -0.390 OA
HETATM   45  H   UNK N   1     -18.042  22.571  -7.649  0.00  0.00     0.210 HD
ENDBRANCH  40  44
BRANCH  42  46
HETATM   46  O   UNK N   1     -18.953  21.157  -5.981  0.00  0.00    -0.390 OA
HETATM   47  H   UNK N   1     -19.197  20.623  -5.180  0.00  0.00     0.210 HD
ENDBRANCH  42  46
BRANCH  43  48
HETATM   48  O   UNK N   1     -18.598  18.350  -6.319  0.00  0.00    -0.388 OA
HETATM   49  H   UNK N   1     -19.162  18.786  -7.009  0.00  0.00     0.210 HD
ENDBRANCH  43  48
ENDBRANCH  36  37
ENDBRANCH  35  36
ENDBRANCH   2  35
BRANCH   4  50
HETATM   50  O   UNK N   1     -13.450  14.927  -2.290  0.00  0.00    -0.390 OA
HETATM   51  H   UNK N   1     -13.793  14.024  -2.520  0.00  0.00     0.210 HD
ENDBRANCH   4  50
BRANCH   3  52
HETATM   52  O   UNK N   1     -15.611  16.527  -3.328  0.00  0.00    -0.390 OA
HETATM   53  H   UNK N   1     -16.158  17.264  -3.706  0.00  0.00     0.210 HD
ENDBRANCH   3  52
TORSDOF 16
ENDMDL
