MODEL 1
REMARK VINA RESULT:      -9.2      0.000      0.000
REMARK  12 active torsions:
REMARK  status: ('A' for Active; 'I' for Inactive)
REMARK    1  A    between atoms: O_1  and  C_7 
REMARK    2  A    between atoms: O_2  and  C_8 
REMARK    3  A    between atoms: C_9  and  C_19 
REMARK    4  A    between atoms: C_10  and  C_20 
REMARK    5  A    between atoms: C_23  and  C_25 
REMARK    6  A    between atoms: C_24  and  C_26 
REMARK    7  A    between atoms: C_29  and  C_31 
REMARK    8  A    between atoms: C_30  and  C_32 
REMARK    9  A    between atoms: C_33  and  C_35 
REMARK   10  A    between atoms: C_34  and  C_36 
REMARK   11  A    between atoms: C_39  and  C_41 
REMARK   12  A    between atoms: C_40  and  C_42 
ROOT
HETATM    1  C   UNK N   1     -18.222  23.160 -11.916  0.00  0.00     0.001 C 
HETATM    2  C   UNK N   1     -18.559  21.986 -11.366  0.00  0.00     0.001 C 
ENDROOT
BRANCH   1   3
HETATM    3  C   UNK N   1     -19.114  23.767 -12.941  0.00  0.00     0.007 C 
HETATM    4  C   UNK N   1     -18.989  23.641 -14.284  0.00  0.00    -0.062 C 
HETATM    5  C   UNK N   1     -17.889  22.827 -14.943  0.00  0.00     0.048 C 
BRANCH   4   6
HETATM    6  C   UNK N   1     -19.989  24.358 -15.135  0.00  0.00     0.007 C 
HETATM    7  C   UNK N   1     -20.484  25.568 -14.827  0.00  0.00     0.001 C 
BRANCH   7   8
HETATM    8  C   UNK N   1     -21.488  26.223 -15.707  0.00  0.00     0.007 C 
HETATM    9  C   UNK N   1     -22.807  26.297 -15.386  0.00  0.00    -0.062 C 
HETATM   10  C   UNK N   1     -23.303  25.721 -14.076  0.00  0.00     0.048 C 
BRANCH   9  11
HETATM   11  C   UNK N   1     -23.832  26.959 -16.261  0.00  0.00     0.007 C 
HETATM   12  C   UNK N   1     -25.135  27.162 -15.940  0.00  0.00     0.009 C 
BRANCH  12  13
HETATM   13  C   UNK N   1     -26.241  27.791 -16.789  0.00  0.00    -0.048 C 
HETATM   14  C   UNK N   1     -27.231  26.776 -17.442  0.00  0.00    -0.018 C 
HETATM   15  C   UNK N   1     -28.076  27.423 -18.576  0.00  0.00     0.045 C 
HETATM   16  C   UNK N   1     -26.484  25.596 -18.122  0.00  0.00     0.020 C 
HETATM   17  C   UNK N   1     -28.147  26.196 -16.337  0.00  0.00     0.020 C 
HETATM   18  C   UNK N   1     -28.705  28.720 -18.120  0.00  0.00     0.123 C 
HETATM   19  C   UNK N   1     -27.588  29.707 -17.809  0.00  0.00     0.066 C 
HETATM   20  C   UNK N   1     -26.426  29.156 -16.992  0.00  0.00    -0.074 C 
HETATM   21  C   UNK N   1     -25.528  30.232 -16.435  0.00  0.00     0.044 C 
BRANCH  18  22
HETATM   22  O   UNK N   1     -29.518  29.266 -19.127  0.00  0.00    -0.395 OA
HETATM   23  H   UNK N   1     -30.445  28.967 -18.942  0.00  0.00     0.210 HD
ENDBRANCH  18  22
ENDBRANCH  12  13
ENDBRANCH   9  11
ENDBRANCH   7   8
ENDBRANCH   4   6
ENDBRANCH   1   3
BRANCH   2  24
HETATM   24  C   UNK N   1     -17.709  21.353 -10.323  0.00  0.00     0.007 C 
HETATM   25  C   UNK N   1     -16.857  20.317 -10.537  0.00  0.00    -0.062 C 
HETATM   26  C   UNK N   1     -16.661  19.673 -11.902  0.00  0.00     0.048 C 
BRANCH  25  27
HETATM   27  C   UNK N   1     -16.087  19.787  -9.368  0.00  0.00     0.007 C 
HETATM   28  C   UNK N   1     -16.616  19.687  -8.134  0.00  0.00     0.001 C 
BRANCH  28  29
HETATM   29  C   UNK N   1     -15.812  19.166  -6.998  0.00  0.00     0.007 C 
HETATM   30  C   UNK N   1     -15.973  19.523  -5.697  0.00  0.00    -0.062 C 
HETATM   31  C   UNK N   1     -17.024  20.523  -5.232  0.00  0.00     0.048 C 
BRANCH  30  32
HETATM   32  C   UNK N   1     -15.057  18.908  -4.684  0.00  0.00     0.007 C 
HETATM   33  C   UNK N   1     -14.585  17.647  -4.792  0.00  0.00     0.009 C 
BRANCH  33  34
HETATM   34  C   UNK N   1     -13.654  16.990  -3.803  0.00  0.00    -0.048 C 
HETATM   35  C   UNK N   1     -14.291  15.958  -2.831  0.00  0.00    -0.018 C 
HETATM   36  C   UNK N   1     -13.312  15.536  -1.699  0.00  0.00     0.045 C 
HETATM   37  C   UNK N   1     -14.732  14.729  -3.660  0.00  0.00     0.020 C 
HETATM   38  C   UNK N   1     -15.540  16.525  -2.109  0.00  0.00     0.020 C 
HETATM   39  C   UNK N   1     -11.937  15.216  -2.253  0.00  0.00     0.123 C 
HETATM   40  C   UNK N   1     -11.355  16.499  -2.841  0.00  0.00     0.066 C 
HETATM   41  C   UNK N   1     -12.298  17.267  -3.751  0.00  0.00    -0.074 C 
HETATM   42  C   UNK N   1     -11.637  18.401  -4.510  0.00  0.00     0.044 C 
BRANCH  39  43
HETATM   43  O   UNK N   1     -11.083  14.757  -1.237  0.00  0.00    -0.395 OA
HETATM   44  H   UNK N   1     -10.207  15.203  -1.374  0.00  0.00     0.210 HD
ENDBRANCH  39  43
ENDBRANCH  33  34
ENDBRANCH  30  32
ENDBRANCH  28  29
ENDBRANCH  25  27
ENDBRANCH   2  24
TORSDOF 12
ENDMDL
MODEL 2
REMARK VINA RESULT:      -9.0      0.595      1.596
REMARK  12 active torsions:
REMARK  status: ('A' for Active; 'I' for Inactive)
REMARK    1  A    between atoms: O_1  and  C_7 
REMARK    2  A    between atoms: O_2  and  C_8 
REMARK    3  A    between atoms: C_9  and  C_19 
REMARK    4  A    between atoms: C_10  and  C_20 
REMARK    5  A    between atoms: C_23  and  C_25 
REMARK    6  A    between atoms: C_24  and  C_26 
REMARK    7  A    between atoms: C_29  and  C_31 
REMARK    8  A    between atoms: C_30  and  C_32 
REMARK    9  A    between atoms: C_33  and  C_35 
REMARK   10  A    between atoms: C_34  and  C_36 
REMARK   11  A    between atoms: C_39  and  C_41 
REMARK   12  A    between atoms: C_40  and  C_42 
ROOT
HETATM    1  C   UNK N   1     -18.116  22.991 -12.086  0.00  0.00     0.001 C 
HETATM    2  C   UNK N   1     -18.510  21.916 -11.390  0.00  0.00     0.001 C 
ENDROOT
BRANCH   1   3
HETATM    3  C   UNK N   1     -19.035  23.581 -13.096  0.00  0.00     0.007 C 
HETATM    4  C   UNK N   1     -18.809  23.664 -14.429  0.00  0.00    -0.062 C 
HETATM    5  C   UNK N   1     -17.549  23.137 -15.093  0.00  0.00     0.048 C 
BRANCH   4   6
HETATM    6  C   UNK N   1     -19.864  24.321 -15.262  0.00  0.00     0.007 C 
HETATM    7  C   UNK N   1     -20.974  24.871 -14.744  0.00  0.00     0.001 C 
BRANCH   7   8
HETATM    8  C   UNK N   1     -21.994  25.497 -15.628  0.00  0.00     0.007 C 
HETATM    9  C   UNK N   1     -23.310  25.566 -15.296  0.00  0.00    -0.062 C 
HETATM   10  C   UNK N   1     -23.787  25.014 -13.968  0.00  0.00     0.048 C 
BRANCH   9  11
HETATM   11  C   UNK N   1     -24.350  26.198 -16.175  0.00  0.00     0.007 C 
HETATM   12  C   UNK N   1     -25.525  26.731 -15.754  0.00  0.00     0.009 C 
BRANCH  12  13
HETATM   13  C   UNK N   1     -26.645  27.354 -16.589  0.00  0.00    -0.048 C 
HETATM   14  C   UNK N   1     -26.520  28.893 -16.817  0.00  0.00    -0.018 C 
HETATM   15  C   UNK N   1     -27.848  29.523 -17.326  0.00  0.00     0.045 C 
HETATM   16  C   UNK N   1     -26.196  29.649 -15.500  0.00  0.00     0.020 C 
HETATM   17  C   UNK N   1     -25.369  29.153 -17.820  0.00  0.00     0.020 C 
HETATM   18  C   UNK N   1     -28.409  28.750 -18.498  0.00  0.00     0.123 C 
HETATM   19  C   UNK N   1     -28.762  27.349 -18.018  0.00  0.00     0.066 C 
HETATM   20  C   UNK N   1     -27.714  26.662 -17.152  0.00  0.00    -0.074 C 
HETATM   21  C   UNK N   1     -27.957  25.183 -16.985  0.00  0.00     0.044 C 
BRANCH  18  22
HETATM   22  O   UNK N   1     -29.572  29.361 -18.993  0.00  0.00    -0.395 OA
HETATM   23  H   UNK N   1     -29.595  30.281 -18.623  0.00  0.00     0.210 HD
ENDBRANCH  18  22
ENDBRANCH  12  13
ENDBRANCH   9  11
ENDBRANCH   7   8
ENDBRANCH   4   6
ENDBRANCH   1   3
BRANCH   2  24
HETATM   24  C   UNK N   1     -17.633  21.305 -10.355  0.00  0.00     0.007 C 
HETATM   25  C   UNK N   1     -16.779  20.272 -10.571  0.00  0.00    -0.062 C 
HETATM   26  C   UNK N   1     -16.607  19.607 -11.930  0.00  0.00     0.048 C 
BRANCH  25  27
HETATM   27  C   UNK N   1     -15.980  19.766  -9.411  0.00  0.00     0.007 C 
HETATM   28  C   UNK N   1     -16.534  19.473  -8.220  0.00  0.00     0.001 C 
BRANCH  28  29
HETATM   29  C   UNK N   1     -15.702  18.984  -7.089  0.00  0.00     0.007 C 
HETATM   30  C   UNK N   1     -15.843  19.363  -5.792  0.00  0.00    -0.062 C 
HETATM   31  C   UNK N   1     -16.898  20.357  -5.327  0.00  0.00     0.048 C 
BRANCH  30  32
HETATM   32  C   UNK N   1     -14.900  18.778  -4.786  0.00  0.00     0.007 C 
HETATM   33  C   UNK N   1     -14.355  17.551  -4.919  0.00  0.00     0.009 C 
BRANCH  33  34
HETATM   34  C   UNK N   1     -13.394  16.926  -3.937  0.00  0.00    -0.048 C 
HETATM   35  C   UNK N   1     -14.014  16.001  -2.853  0.00  0.00    -0.018 C 
HETATM   36  C   UNK N   1     -12.987  15.618  -1.749  0.00  0.00     0.045 C 
HETATM   37  C   UNK N   1     -14.557  14.736  -3.558  0.00  0.00     0.020 C 
HETATM   38  C   UNK N   1     -15.192  16.678  -2.107  0.00  0.00     0.020 C 
HETATM   39  C   UNK N   1     -11.663  15.194  -2.355  0.00  0.00     0.123 C 
HETATM   40  C   UNK N   1     -11.064  16.400  -3.074  0.00  0.00     0.066 C 
HETATM   41  C   UNK N   1     -12.027  17.142  -3.984  0.00  0.00    -0.074 C 
HETATM   42  C   UNK N   1     -11.365  18.183  -4.866  0.00  0.00     0.044 C 
BRANCH  39  43
HETATM   43  O   UNK N   1     -10.769  14.772  -1.358  0.00  0.00    -0.395 OA
HETATM   44  H   UNK N   1     -10.635  15.542  -0.747  0.00  0.00     0.210 HD
ENDBRANCH  39  43
ENDBRANCH  33  34
ENDBRANCH  30  32
ENDBRANCH  28  29
ENDBRANCH  25  27
ENDBRANCH   2  24
TORSDOF 12
ENDMDL
MODEL 3
REMARK VINA RESULT:      -8.8      3.366     19.049
REMARK  12 active torsions:
REMARK  status: ('A' for Active; 'I' for Inactive)
REMARK    1  A    between atoms: O_1  and  C_7 
REMARK    2  A    between atoms: O_2  and  C_8 
REMARK    3  A    between atoms: C_9  and  C_19 
REMARK    4  A    between atoms: C_10  and  C_20 
REMARK    5  A    between atoms: C_23  and  C_25 
REMARK    6  A    between atoms: C_24  and  C_26 
REMARK    7  A    between atoms: C_29  and  C_31 
REMARK    8  A    between atoms: C_30  and  C_32 
REMARK    9  A    between atoms: C_33  and  C_35 
REMARK   10  A    between atoms: C_34  and  C_36 
REMARK   11  A    between atoms: C_39  and  C_41 
REMARK   12  A    between atoms: C_40  and  C_42 
ROOT
HETATM    1  C   UNK N   1     -20.605  25.446 -12.423  0.00  0.00     0.001 C 
HETATM    2  C   UNK N   1     -20.859  26.709 -12.054  0.00  0.00     0.001 C 
ENDROOT
BRANCH   1   3
HETATM    3  C   UNK N   1     -20.145  24.467 -11.401  0.00  0.00     0.007 C 
HETATM    4  C   UNK N   1     -19.387  23.369 -11.631  0.00  0.00    -0.062 C 
HETATM    5  C   UNK N   1     -18.880  22.983 -13.010  0.00  0.00     0.048 C 
BRANCH   4   6
HETATM    6  C   UNK N   1     -19.058  22.505 -10.455  0.00  0.00     0.007 C 
HETATM    7  C   UNK N   1     -17.826  22.027 -10.215  0.00  0.00     0.001 C 
BRANCH   7   8
HETATM    8  C   UNK N   1     -17.566  21.159  -9.035  0.00  0.00     0.007 C 
HETATM    9  C   UNK N   1     -16.626  20.177  -9.039  0.00  0.00    -0.062 C 
HETATM   10  C   UNK N   1     -15.777  19.945 -10.272  0.00  0.00     0.048 C 
BRANCH   9  11
HETATM   11  C   UNK N   1     -16.349  19.297  -7.855  0.00  0.00     0.007 C 
HETATM   12  C   UNK N   1     -15.940  19.721  -6.633  0.00  0.00     0.009 C 
BRANCH  12  13
HETATM   13  C   UNK N   1     -15.603  18.886  -5.396  0.00  0.00    -0.048 C 
HETATM   14  C   UNK N   1     -16.761  18.741  -4.360  0.00  0.00    -0.018 C 
HETATM   15  C   UNK N   1     -16.257  18.226  -2.981  0.00  0.00     0.045 C 
HETATM   16  C   UNK N   1     -17.438  20.105  -4.056  0.00  0.00     0.020 C 
HETATM   17  C   UNK N   1     -17.832  17.788  -4.945  0.00  0.00     0.020 C 
HETATM   18  C   UNK N   1     -15.387  17.000  -3.137  0.00  0.00     0.123 C 
HETATM   19  C   UNK N   1     -14.144  17.395  -3.921  0.00  0.00     0.066 C 
HETATM   20  C   UNK N   1     -14.384  18.256  -5.155  0.00  0.00    -0.074 C 
HETATM   21  C   UNK N   1     -13.185  18.338  -6.065  0.00  0.00     0.044 C 
BRANCH  18  22
HETATM   22  O   UNK N   1     -14.990  16.502  -1.886  0.00  0.00    -0.395 OA
HETATM   23  H   UNK N   1     -15.670  15.835  -1.611  0.00  0.00     0.210 HD
ENDBRANCH  18  22
ENDBRANCH  12  13
ENDBRANCH   9  11
ENDBRANCH   7   8
ENDBRANCH   4   6
ENDBRANCH   1   3
BRANCH   2  24
HETATM   24  C   UNK N   1     -21.341  27.715 -13.037  0.00  0.00     0.007 C 
HETATM   25  C   UNK N   1     -22.593  27.752 -13.562  0.00  0.00    -0.062 C 
HETATM   26  C   UNK N   1     -23.678  26.751 -13.191  0.00  0.00     0.048 C 
BRANCH  25  27
HETATM   27  C   UNK N   1     -22.908  28.827 -14.555  0.00  0.00     0.007 C 
HETATM   28  C   UNK N   1     -24.139  29.352 -14.692  0.00  0.00     0.001 C 
BRANCH  28  29
HETATM   29  C   UNK N   1     -24.411  30.410 -15.699  0.00  0.00     0.007 C 
HETATM   30  C   UNK N   1     -25.069  30.222 -16.874  0.00  0.00    -0.062 C 
HETATM   31  C   UNK N   1     -25.622  28.873 -17.311  0.00  0.00     0.048 C 
BRANCH  30  32
HETATM   32  C   UNK N   1     -25.237  31.404 -17.778  0.00  0.00     0.007 C 
HETATM   33  C   UNK N   1     -24.501  32.530 -17.658  0.00  0.00     0.009 C 
BRANCH  33  34
HETATM   34  C   UNK N   1     -24.628  33.740 -18.551  0.00  0.00    -0.048 C 
HETATM   35  C   UNK N   1     -25.844  34.672 -18.287  0.00  0.00    -0.018 C 
HETATM   36  C   UNK N   1     -26.027  35.733 -19.409  0.00  0.00     0.045 C 
HETATM   37  C   UNK N   1     -25.634  35.356 -16.916  0.00  0.00     0.020 C 
HETATM   38  C   UNK N   1     -27.182  33.890 -18.234  0.00  0.00     0.020 C 
HETATM   39  C   UNK N   1     -24.706  36.391 -19.762  0.00  0.00     0.123 C 
HETATM   40  C   UNK N   1     -23.788  35.323 -20.350  0.00  0.00     0.066 C 
HETATM   41  C   UNK N   1     -23.719  34.033 -19.552  0.00  0.00    -0.074 C 
HETATM   42  C   UNK N   1     -22.633  33.079 -20.013  0.00  0.00     0.044 C 
BRANCH  39  43
HETATM   43  O   UNK N   1     -24.891  37.404 -20.716  0.00  0.00    -0.395 OA
HETATM   44  H   UNK N   1     -24.207  38.100 -20.533  0.00  0.00     0.210 HD
ENDBRANCH  39  43
ENDBRANCH  33  34
ENDBRANCH  30  32
ENDBRANCH  28  29
ENDBRANCH  25  27
ENDBRANCH   2  24
TORSDOF 12
ENDMDL
MODEL 4
REMARK VINA RESULT:      -8.8      0.963     18.592
REMARK  12 active torsions:
REMARK  status: ('A' for Active; 'I' for Inactive)
REMARK    1  A    between atoms: O_1  and  C_7 
REMARK    2  A    between atoms: O_2  and  C_8 
REMARK    3  A    between atoms: C_9  and  C_19 
REMARK    4  A    between atoms: C_10  and  C_20 
REMARK    5  A    between atoms: C_23  and  C_25 
REMARK    6  A    between atoms: C_24  and  C_26 
REMARK    7  A    between atoms: C_29  and  C_31 
REMARK    8  A    between atoms: C_30  and  C_32 
REMARK    9  A    between atoms: C_33  and  C_35 
REMARK   10  A    between atoms: C_34  and  C_36 
REMARK   11  A    between atoms: C_39  and  C_41 
REMARK   12  A    between atoms: C_40  and  C_42 
ROOT
HETATM    1  C   UNK N   1     -19.300  22.646 -11.184  0.00  0.00     0.001 C 
HETATM    2  C   UNK N   1     -18.998  23.821 -11.752  0.00  0.00     0.001 C 
ENDROOT
BRANCH   1   3
HETATM    3  C   UNK N   1     -18.267  21.941 -10.377  0.00  0.00     0.007 C 
HETATM    4  C   UNK N   1     -17.505  20.901 -10.788  0.00  0.00    -0.062 C 
HETATM    5  C   UNK N   1     -17.598  20.301 -12.181  0.00  0.00     0.048 C 
BRANCH   4   6
HETATM    6  C   UNK N   1     -16.540  20.326  -9.800  0.00  0.00     0.007 C 
HETATM    7  C   UNK N   1     -16.908  19.873  -8.591  0.00  0.00     0.001 C 
BRANCH   7   8
HETATM    8  C   UNK N   1     -15.897  19.326  -7.646  0.00  0.00     0.007 C 
HETATM    9  C   UNK N   1     -15.950  19.547  -6.306  0.00  0.00    -0.062 C 
HETATM   10  C   UNK N   1     -17.085  20.358  -5.715  0.00  0.00     0.048 C 
BRANCH   9  11
HETATM   11  C   UNK N   1     -14.941  18.998  -5.339  0.00  0.00     0.007 C 
HETATM   12  C   UNK N   1     -14.718  17.683  -5.089  0.00  0.00     0.009 C 
BRANCH  12  13
HETATM   13  C   UNK N   1     -13.739  17.052  -4.096  0.00  0.00    -0.048 C 
HETATM   14  C   UNK N   1     -14.395  16.149  -3.006  0.00  0.00    -0.018 C 
HETATM   15  C   UNK N   1     -13.427  15.855  -1.824  0.00  0.00     0.045 C 
HETATM   16  C   UNK N   1     -15.628  16.831  -2.354  0.00  0.00     0.020 C 
HETATM   17  C   UNK N   1     -14.865  14.831  -3.671  0.00  0.00     0.020 C 
HETATM   18  C   UNK N   1     -12.082  15.377  -2.322  0.00  0.00     0.123 C 
HETATM   19  C   UNK N   1     -11.443  16.503  -3.122  0.00  0.00     0.066 C 
HETATM   20  C   UNK N   1     -12.356  17.211  -4.116  0.00  0.00    -0.074 C 
HETATM   21  C   UNK N   1     -11.608  18.072  -5.102  0.00  0.00     0.044 C 
BRANCH  18  22
HETATM   22  O   UNK N   1     -11.235  15.052  -1.249  0.00  0.00    -0.395 OA
HETATM   23  H   UNK N   1     -11.409  14.103  -1.022  0.00  0.00     0.210 HD
ENDBRANCH  18  22
ENDBRANCH  12  13
ENDBRANCH   9  11
ENDBRANCH   7   8
ENDBRANCH   4   6
ENDBRANCH   1   3
BRANCH   2  24
HETATM   24  C   UNK N   1     -20.005  24.571 -12.550  0.00  0.00     0.007 C 
HETATM   25  C   UNK N   1     -20.087  24.561 -13.905  0.00  0.00    -0.062 C 
HETATM   26  C   UNK N   1     -19.144  23.757 -14.788  0.00  0.00     0.048 C 
BRANCH  25  27
HETATM   27  C   UNK N   1     -21.155  25.389 -14.551  0.00  0.00     0.007 C 
HETATM   28  C   UNK N   1     -22.077  24.867 -15.381  0.00  0.00     0.001 C 
BRANCH  28  29
HETATM   29  C   UNK N   1     -23.113  25.726 -16.010  0.00  0.00     0.007 C 
HETATM   30  C   UNK N   1     -23.178  26.033 -17.332  0.00  0.00    -0.062 C 
HETATM   31  C   UNK N   1     -22.174  25.520 -18.355  0.00  0.00     0.048 C 
BRANCH  30  32
HETATM   32  C   UNK N   1     -24.286  26.932 -17.787  0.00  0.00     0.007 C 
HETATM   33  C   UNK N   1     -25.365  27.210 -17.025  0.00  0.00     0.009 C 
BRANCH  33  34
HETATM   34  C   UNK N   1     -26.499  28.116 -17.438  0.00  0.00    -0.048 C 
HETATM   35  C   UNK N   1     -27.841  27.424 -17.809  0.00  0.00    -0.018 C 
HETATM   36  C   UNK N   1     -28.852  28.410 -18.459  0.00  0.00     0.045 C 
HETATM   37  C   UNK N   1     -28.431  26.805 -16.520  0.00  0.00     0.020 C 
HETATM   38  C   UNK N   1     -27.648  26.285 -18.844  0.00  0.00     0.020 C 
HETATM   39  C   UNK N   1     -28.928  29.710 -17.681  0.00  0.00     0.123 C 
HETATM   40  C   UNK N   1     -27.568  30.396 -17.771  0.00  0.00     0.066 C 
HETATM   41  C   UNK N   1     -26.380  29.494 -17.484  0.00  0.00    -0.074 C 
HETATM   42  C   UNK N   1     -25.063  30.234 -17.345  0.00  0.00     0.044 C 
BRANCH  39  43
HETATM   43  O   UNK N   1     -29.902  30.562 -18.225  0.00  0.00    -0.395 OA
HETATM   44  H   UNK N   1     -30.153  31.205 -17.511  0.00  0.00     0.210 HD
ENDBRANCH  39  43
ENDBRANCH  33  34
ENDBRANCH  30  32
ENDBRANCH  28  29
ENDBRANCH  25  27
ENDBRANCH   2  24
TORSDOF 12
ENDMDL
MODEL 5
REMARK VINA RESULT:      -8.8      1.613     18.592
REMARK  12 active torsions:
REMARK  status: ('A' for Active; 'I' for Inactive)
REMARK    1  A    between atoms: O_1  and  C_7 
REMARK    2  A    between atoms: O_2  and  C_8 
REMARK    3  A    between atoms: C_9  and  C_19 
REMARK    4  A    between atoms: C_10  and  C_20 
REMARK    5  A    between atoms: C_23  and  C_25 
REMARK    6  A    between atoms: C_24  and  C_26 
REMARK    7  A    between atoms: C_29  and  C_31 
REMARK    8  A    between atoms: C_30  and  C_32 
REMARK    9  A    between atoms: C_33  and  C_35 
REMARK   10  A    between atoms: C_34  and  C_36 
REMARK   11  A    between atoms: C_39  and  C_41 
REMARK   12  A    between atoms: C_40  and  C_42 
ROOT
HETATM    1  C   UNK N   1     -18.891  22.362 -11.249  0.00  0.00     0.001 C 
HETATM    2  C   UNK N   1     -18.553  23.311 -12.133  0.00  0.00     0.001 C 
ENDROOT
BRANCH   1   3
HETATM    3  C   UNK N   1     -17.819  21.639 -10.513  0.00  0.00     0.007 C 
HETATM    4  C   UNK N   1     -17.154  20.542 -10.946  0.00  0.00    -0.062 C 
HETATM    5  C   UNK N   1     -17.415  19.889 -12.292  0.00  0.00     0.048 C 
BRANCH   4   6
HETATM    6  C   UNK N   1     -16.125  19.959 -10.029  0.00  0.00     0.007 C 
HETATM    7  C   UNK N   1     -16.433  19.325  -8.886  0.00  0.00     0.001 C 
BRANCH   7   8
HETATM    8  C   UNK N   1     -15.361  18.781  -8.009  0.00  0.00     0.007 C 
HETATM    9  C   UNK N   1     -15.350  18.968  -6.663  0.00  0.00    -0.062 C 
HETATM   10  C   UNK N   1     -16.470  19.738  -5.994  0.00  0.00     0.048 C 
BRANCH   9  11
HETATM   11  C   UNK N   1     -14.279  18.421  -5.764  0.00  0.00     0.007 C 
HETATM   12  C   UNK N   1     -13.140  19.065  -5.406  0.00  0.00     0.009 C 
BRANCH  12  13
HETATM   13  C   UNK N   1     -11.992  18.561  -4.530  0.00  0.00    -0.048 C 
HETATM   14  C   UNK N   1     -10.630  18.375  -5.268  0.00  0.00    -0.018 C 
HETATM   15  C   UNK N   1      -9.626  17.516  -4.447  0.00  0.00     0.045 C 
HETATM   16  C   UNK N   1     -10.800  17.616  -6.613  0.00  0.00     0.020 C 
HETATM   17  C   UNK N   1     -10.035  19.772  -5.572  0.00  0.00     0.020 C 
HETATM   18  C   UNK N   1      -9.515  18.012  -3.023  0.00  0.00     0.123 C 
HETATM   19  C   UNK N   1     -10.870  17.839  -2.352  0.00  0.00     0.066 C 
HETATM   20  C   UNK N   1     -12.076  18.287  -3.167  0.00  0.00    -0.074 C 
HETATM   21  C   UNK N   1     -13.337  18.407  -2.348  0.00  0.00     0.044 C 
BRANCH  18  22
HETATM   22  O   UNK N   1      -8.560  17.274  -2.306  0.00  0.00    -0.395 OA
HETATM   23  H   UNK N   1      -7.851  17.910  -2.029  0.00  0.00     0.210 HD
ENDBRANCH  18  22
ENDBRANCH  12  13
ENDBRANCH   9  11
ENDBRANCH   7   8
ENDBRANCH   4   6
ENDBRANCH   1   3
BRANCH   2  24
HETATM   24  C   UNK N   1     -19.591  24.074 -12.876  0.00  0.00     0.007 C 
HETATM   25  C   UNK N   1     -19.703  24.121 -14.228  0.00  0.00    -0.062 C 
HETATM   26  C   UNK N   1     -18.765  23.372 -15.165  0.00  0.00     0.048 C 
BRANCH  25  27
HETATM   27  C   UNK N   1     -20.800  24.954 -14.815  0.00  0.00     0.007 C 
HETATM   28  C   UNK N   1     -21.334  24.705 -16.025  0.00  0.00     0.001 C 
BRANCH  28  29
HETATM   29  C   UNK N   1     -22.414  25.565 -16.575  0.00  0.00     0.007 C 
HETATM   30  C   UNK N   1     -23.410  25.140 -17.396  0.00  0.00    -0.062 C 
HETATM   31  C   UNK N   1     -23.547  23.697 -17.861  0.00  0.00     0.048 C 
BRANCH  30  32
HETATM   32  C   UNK N   1     -24.406  26.154 -17.869  0.00  0.00     0.007 C 
HETATM   33  C   UNK N   1     -25.378  26.654 -17.076  0.00  0.00     0.009 C 
BRANCH  33  34
HETATM   34  C   UNK N   1     -26.395  27.683 -17.506  0.00  0.00    -0.048 C 
HETATM   35  C   UNK N   1     -27.788  27.143 -17.936  0.00  0.00    -0.018 C 
HETATM   36  C   UNK N   1     -28.666  28.243 -18.597  0.00  0.00     0.045 C 
HETATM   37  C   UNK N   1     -28.485  26.567 -16.680  0.00  0.00     0.020 C 
HETATM   38  C   UNK N   1     -27.680  26.010 -18.988  0.00  0.00     0.020 C 
HETATM   39  C   UNK N   1     -28.632  29.529 -17.793  0.00  0.00     0.123 C 
HETATM   40  C   UNK N   1     -27.205  30.068 -17.824  0.00  0.00     0.066 C 
HETATM   41  C   UNK N   1     -26.129  29.041 -17.518  0.00  0.00    -0.074 C 
HETATM   42  C   UNK N   1     -24.747  29.634 -17.319  0.00  0.00     0.044 C 
BRANCH  39  43
HETATM   43  O   UNK N   1     -29.491  30.490 -18.350  0.00  0.00    -0.395 OA
HETATM   44  H   UNK N   1     -30.250  29.996 -18.757  0.00  0.00     0.210 HD
ENDBRANCH  39  43
ENDBRANCH  33  34
ENDBRANCH  30  32
ENDBRANCH  28  29
ENDBRANCH  25  27
ENDBRANCH   2  24
TORSDOF 12
ENDMDL
MODEL 6
REMARK VINA RESULT:      -8.7      2.474     18.676
REMARK  12 active torsions:
REMARK  status: ('A' for Active; 'I' for Inactive)
REMARK    1  A    between atoms: O_1  and  C_7 
REMARK    2  A    between atoms: O_2  and  C_8 
REMARK    3  A    between atoms: C_9  and  C_19 
REMARK    4  A    between atoms: C_10  and  C_20 
REMARK    5  A    between atoms: C_23  and  C_25 
REMARK    6  A    between atoms: C_24  and  C_26 
REMARK    7  A    between atoms: C_29  and  C_31 
REMARK    8  A    between atoms: C_30  and  C_32 
REMARK    9  A    between atoms: C_33  and  C_35 
REMARK   10  A    between atoms: C_34  and  C_36 
REMARK   11  A    between atoms: C_39  and  C_41 
REMARK   12  A    between atoms: C_40  and  C_42 
ROOT
HETATM    1  C   UNK N   1     -20.348  23.890 -12.868  0.00  0.00     0.001 C 
HETATM    2  C   UNK N   1     -20.067  25.191 -12.716  0.00  0.00     0.001 C 
ENDROOT
BRANCH   1   3
HETATM    3  C   UNK N   1     -19.588  22.884 -12.077  0.00  0.00     0.007 C 
HETATM    4  C   UNK N   1     -18.562  22.123 -12.528  0.00  0.00    -0.062 C 
HETATM    5  C   UNK N   1     -18.027  22.206 -13.947  0.00  0.00     0.048 C 
BRANCH   4   6
HETATM    6  C   UNK N   1     -17.953  21.154 -11.565  0.00  0.00     0.007 C 
HETATM    7  C   UNK N   1     -17.367  21.529 -10.416  0.00  0.00     0.001 C 
BRANCH   7   8
HETATM    8  C   UNK N   1     -16.765  20.517  -9.507  0.00  0.00     0.007 C 
HETATM    9  C   UNK N   1     -17.117  20.405  -8.199  0.00  0.00    -0.062 C 
HETATM   10  C   UNK N   1     -18.178  21.317  -7.617  0.00  0.00     0.048 C 
BRANCH   9  11
HETATM   11  C   UNK N   1     -16.523  19.385  -7.270  0.00  0.00     0.007 C 
HETATM   12  C   UNK N   1     -16.156  19.606  -5.983  0.00  0.00     0.009 C 
BRANCH  12  13
HETATM   13  C   UNK N   1     -15.513  18.633  -4.992  0.00  0.00    -0.048 C 
HETATM   14  C   UNK N   1     -16.441  18.167  -3.827  0.00  0.00    -0.018 C 
HETATM   15  C   UNK N   1     -15.643  17.506  -2.667  0.00  0.00     0.045 C 
HETATM   16  C   UNK N   1     -17.188  19.360  -3.171  0.00  0.00     0.020 C 
HETATM   17  C   UNK N   1     -17.497  17.188  -4.396  0.00  0.00     0.020 C 
HETATM   18  C   UNK N   1     -14.694  16.449  -3.186  0.00  0.00     0.123 C 
HETATM   19  C   UNK N   1     -13.663  17.130  -4.074  0.00  0.00     0.066 C 
HETATM   20  C   UNK N   1     -14.212  18.141  -5.072  0.00  0.00    -0.074 C 
HETATM   21  C   UNK N   1     -13.216  18.531  -6.135  0.00  0.00     0.044 C 
BRANCH  18  22
HETATM   22  O   UNK N   1     -14.025  15.812  -2.128  0.00  0.00    -0.395 OA
HETATM   23  H   UNK N   1     -13.734  16.522  -1.501  0.00  0.00     0.210 HD
ENDBRANCH  18  22
ENDBRANCH  12  13
ENDBRANCH   9  11
ENDBRANCH   7   8
ENDBRANCH   4   6
ENDBRANCH   1   3
BRANCH   2  24
HETATM   24  C   UNK N   1     -20.815  26.232 -13.470  0.00  0.00     0.007 C 
HETATM   25  C   UNK N   1     -21.575  27.206 -12.905  0.00  0.00    -0.062 C 
HETATM   26  C   UNK N   1     -21.747  27.355 -11.399  0.00  0.00     0.048 C 
BRANCH  25  27
HETATM   27  C   UNK N   1     -22.277  28.166 -13.814  0.00  0.00     0.007 C 
HETATM   28  C   UNK N   1     -23.422  27.859 -14.451  0.00  0.00     0.001 C 
BRANCH  28  29
HETATM   29  C   UNK N   1     -24.081  28.839 -15.354  0.00  0.00     0.007 C 
HETATM   30  C   UNK N   1     -23.940  28.874 -16.705  0.00  0.00    -0.062 C 
HETATM   31  C   UNK N   1     -23.073  27.890 -17.477  0.00  0.00     0.048 C 
BRANCH  30  32
HETATM   32  C   UNK N   1     -24.668  29.947 -17.455  0.00  0.00     0.007 C 
HETATM   33  C   UNK N   1     -25.118  31.076 -16.868  0.00  0.00     0.009 C 
BRANCH  33  34
HETATM   34  C   UNK N   1     -25.846  32.187 -17.585  0.00  0.00    -0.048 C 
HETATM   35  C   UNK N   1     -25.007  33.442 -17.953  0.00  0.00    -0.018 C 
HETATM   36  C   UNK N   1     -25.895  34.618 -18.451  0.00  0.00     0.045 C 
HETATM   37  C   UNK N   1     -23.984  33.031 -19.039  0.00  0.00     0.020 C 
HETATM   38  C   UNK N   1     -24.221  34.000 -16.739  0.00  0.00     0.020 C 
HETATM   39  C   UNK N   1     -26.920  34.142 -19.462  0.00  0.00     0.123 C 
HETATM   40  C   UNK N   1     -27.870  33.180 -18.755  0.00  0.00     0.066 C 
HETATM   41  C   UNK N   1     -27.188  32.113 -17.917  0.00  0.00    -0.074 C 
HETATM   42  C   UNK N   1     -28.125  31.029 -17.416  0.00  0.00     0.044 C 
BRANCH  39  43
HETATM   43  O   UNK N   1     -27.662  35.221 -19.968  0.00  0.00    -0.395 OA
HETATM   44  H   UNK N   1     -27.053  35.737 -20.559  0.00  0.00     0.210 HD
ENDBRANCH  39  43
ENDBRANCH  33  34
ENDBRANCH  30  32
ENDBRANCH  28  29
ENDBRANCH  25  27
ENDBRANCH   2  24
TORSDOF 12
ENDMDL
MODEL 7
REMARK VINA RESULT:      -8.6      1.190      2.130
REMARK  12 active torsions:
REMARK  status: ('A' for Active; 'I' for Inactive)
REMARK    1  A    between atoms: O_1  and  C_7 
REMARK    2  A    between atoms: O_2  and  C_8 
REMARK    3  A    between atoms: C_9  and  C_19 
REMARK    4  A    between atoms: C_10  and  C_20 
REMARK    5  A    between atoms: C_23  and  C_25 
REMARK    6  A    between atoms: C_24  and  C_26 
REMARK    7  A    between atoms: C_29  and  C_31 
REMARK    8  A    between atoms: C_30  and  C_32 
REMARK    9  A    between atoms: C_33  and  C_35 
REMARK   10  A    between atoms: C_34  and  C_36 
REMARK   11  A    between atoms: C_39  and  C_41 
REMARK   12  A    between atoms: C_40  and  C_42 
ROOT
HETATM    1  C   UNK N   1     -18.344  23.038 -13.128  0.00  0.00     0.001 C 
HETATM    2  C   UNK N   1     -18.799  22.301 -12.106  0.00  0.00     0.001 C 
ENDROOT
BRANCH   1   3
HETATM    3  C   UNK N   1     -19.299  23.880 -13.899  0.00  0.00     0.007 C 
HETATM    4  C   UNK N   1     -19.451  23.886 -15.244  0.00  0.00    -0.062 C 
HETATM    5  C   UNK N   1     -18.647  22.996 -16.176  0.00  0.00     0.048 C 
BRANCH   4   6
HETATM    6  C   UNK N   1     -20.459  24.833 -15.815  0.00  0.00     0.007 C 
HETATM    7  C   UNK N   1     -21.181  24.564 -16.915  0.00  0.00     0.001 C 
BRANCH   7   8
HETATM    8  C   UNK N   1     -22.157  25.555 -17.442  0.00  0.00     0.007 C 
HETATM    9  C   UNK N   1     -23.477  25.528 -17.119  0.00  0.00    -0.062 C 
HETATM   10  C   UNK N   1     -24.004  24.473 -16.168  0.00  0.00     0.048 C 
BRANCH   9  11
HETATM   11  C   UNK N   1     -24.473  26.525 -17.638  0.00  0.00     0.007 C 
HETATM   12  C   UNK N   1     -25.425  27.150 -16.900  0.00  0.00     0.009 C 
BRANCH  12  13
HETATM   13  C   UNK N   1     -26.493  28.143 -17.363  0.00  0.00    -0.048 C 
HETATM   14  C   UNK N   1     -27.864  27.505 -17.751  0.00  0.00    -0.018 C 
HETATM   15  C   UNK N   1     -28.761  28.485 -18.561  0.00  0.00     0.045 C 
HETATM   16  C   UNK N   1     -27.686  26.269 -18.674  0.00  0.00     0.020 C 
HETATM   17  C   UNK N   1     -28.581  27.046 -16.458  0.00  0.00     0.020 C 
HETATM   18  C   UNK N   1     -28.856  29.832 -17.882  0.00  0.00     0.123 C 
HETATM   19  C   UNK N   1     -27.467  30.452 -17.858  0.00  0.00     0.066 C 
HETATM   20  C   UNK N   1     -26.333  29.524 -17.438  0.00  0.00    -0.074 C 
HETATM   21  C   UNK N   1     -25.055  30.255 -17.112  0.00  0.00     0.044 C 
BRANCH  18  22
HETATM   22  O   UNK N   1     -29.719  30.689 -18.583  0.00  0.00    -0.395 OA
HETATM   23  H   UNK N   1     -30.072  31.344 -17.927  0.00  0.00     0.210 HD
ENDBRANCH  18  22
ENDBRANCH  12  13
ENDBRANCH   9  11
ENDBRANCH   7   8
ENDBRANCH   4   6
ENDBRANCH   1   3
BRANCH   2  24
HETATM   24  C   UNK N   1     -17.878  21.461 -11.294  0.00  0.00     0.007 C 
HETATM   25  C   UNK N   1     -17.799  21.481  -9.938  0.00  0.00    -0.062 C 
HETATM   26  C   UNK N   1     -18.669  22.378  -9.069  0.00  0.00     0.048 C 
BRANCH  25  27
HETATM   27  C   UNK N   1     -16.801  20.580  -9.279  0.00  0.00     0.007 C 
HETATM   28  C   UNK N   1     -17.050  19.949  -8.116  0.00  0.00     0.001 C 
BRANCH  28  29
HETATM   29  C   UNK N   1     -16.027  19.072  -7.489  0.00  0.00     0.007 C 
HETATM   30  C   UNK N   1     -15.675  19.094  -6.177  0.00  0.00    -0.062 C 
HETATM   31  C   UNK N   1     -16.303  20.041  -5.163  0.00  0.00     0.048 C 
BRANCH  30  32
HETATM   32  C   UNK N   1     -14.608  18.146  -5.723  0.00  0.00     0.007 C 
HETATM   33  C   UNK N   1     -14.029  18.222  -4.506  0.00  0.00     0.009 C 
BRANCH  33  34
HETATM   34  C   UNK N   1     -12.959  17.284  -4.003  0.00  0.00    -0.048 C 
HETATM   35  C   UNK N   1     -11.491  17.785  -4.109  0.00  0.00    -0.018 C 
HETATM   36  C   UNK N   1     -10.462  16.659  -3.808  0.00  0.00     0.045 C 
HETATM   37  C   UNK N   1     -11.317  18.965  -3.123  0.00  0.00     0.020 C 
HETATM   38  C   UNK N   1     -11.146  18.294  -5.532  0.00  0.00     0.020 C 
HETATM   39  C   UNK N   1     -10.846  15.883  -2.563  0.00  0.00     0.123 C 
HETATM   40  C   UNK N   1     -12.167  15.170  -2.840  0.00  0.00     0.066 C 
HETATM   41  C   UNK N   1     -13.243  16.042  -3.463  0.00  0.00    -0.074 C 
HETATM   42  C   UNK N   1     -14.612  15.391  -3.513  0.00  0.00     0.044 C 
BRANCH  39  43
HETATM   43  O   UNK N   1      -9.870  14.923  -2.251  0.00  0.00    -0.395 OA
HETATM   44  H   UNK N   1      -9.191  15.377  -1.687  0.00  0.00     0.210 HD
ENDBRANCH  39  43
ENDBRANCH  33  34
ENDBRANCH  30  32
ENDBRANCH  28  29
ENDBRANCH  25  27
ENDBRANCH   2  24
TORSDOF 12
ENDMDL
MODEL 8
REMARK VINA RESULT:      -8.2      2.632     19.006
REMARK  12 active torsions:
REMARK  status: ('A' for Active; 'I' for Inactive)
REMARK    1  A    between atoms: O_1  and  C_7 
REMARK    2  A    between atoms: O_2  and  C_8 
REMARK    3  A    between atoms: C_9  and  C_19 
REMARK    4  A    between atoms: C_10  and  C_20 
REMARK    5  A    between atoms: C_23  and  C_25 
REMARK    6  A    between atoms: C_24  and  C_26 
REMARK    7  A    between atoms: C_29  and  C_31 
REMARK    8  A    between atoms: C_30  and  C_32 
REMARK    9  A    between atoms: C_33  and  C_35 
REMARK   10  A    between atoms: C_34  and  C_36 
REMARK   11  A    between atoms: C_39  and  C_41 
REMARK   12  A    between atoms: C_40  and  C_42 
ROOT
HETATM    1  C   UNK N   1     -21.248  24.295 -11.108  0.00  0.00     0.001 C 
HETATM    2  C   UNK N   1     -21.124  25.628 -11.048  0.00  0.00     0.001 C 
ENDROOT
BRANCH   1   3
HETATM    3  C   UNK N   1     -20.444  23.447 -10.188  0.00  0.00     0.007 C 
HETATM    4  C   UNK N   1     -19.183  23.004 -10.406  0.00  0.00    -0.062 C 
HETATM    5  C   UNK N   1     -18.391  23.335 -11.660  0.00  0.00     0.048 C 
BRANCH   4   6
HETATM    6  C   UNK N   1     -18.568  22.140  -9.352  0.00  0.00     0.007 C 
HETATM    7  C   UNK N   1     -17.636  21.209  -9.614  0.00  0.00     0.001 C 
BRANCH   7   8
HETATM    8  C   UNK N   1     -17.075  20.369  -8.522  0.00  0.00     0.007 C 
HETATM    9  C   UNK N   1     -16.049  19.500  -8.718  0.00  0.00    -0.062 C 
HETATM   10  C   UNK N   1     -15.414  19.373 -10.088  0.00  0.00     0.048 C 
BRANCH   9  11
HETATM   11  C   UNK N   1     -15.468  18.650  -7.626  0.00  0.00     0.007 C 
HETATM   12  C   UNK N   1     -14.622  19.078  -6.655  0.00  0.00     0.009 C 
BRANCH  12  13
HETATM   13  C   UNK N   1     -13.962  18.268  -5.537  0.00  0.00    -0.048 C 
HETATM   14  C   UNK N   1     -12.405  18.354  -5.489  0.00  0.00    -0.018 C 
HETATM   15  C   UNK N   1     -11.780  17.238  -4.605  0.00  0.00     0.045 C 
HETATM   16  C   UNK N   1     -11.772  18.155  -6.893  0.00  0.00     0.020 C 
HETATM   17  C   UNK N   1     -12.002  19.756  -4.970  0.00  0.00     0.020 C 
HETATM   18  C   UNK N   1     -12.454  17.165  -3.254  0.00  0.00     0.123 C 
HETATM   19  C   UNK N   1     -13.909  16.771  -3.468  0.00  0.00     0.066 C 
HETATM   20  C   UNK N   1     -14.637  17.507  -4.586  0.00  0.00    -0.074 C 
HETATM   21  C   UNK N   1     -16.134  17.328  -4.539  0.00  0.00     0.044 C 
BRANCH  18  22
HETATM   22  O   UNK N   1     -11.843  16.200  -2.438  0.00  0.00    -0.395 OA
HETATM   23  H   UNK N   1     -11.629  16.643  -1.577  0.00  0.00     0.210 HD
ENDBRANCH  18  22
ENDBRANCH  12  13
ENDBRANCH   9  11
ENDBRANCH   7   8
ENDBRANCH   4   6
ENDBRANCH   1   3
BRANCH   2  24
HETATM   24  C   UNK N   1     -21.923  26.516 -11.934  0.00  0.00     0.007 C 
HETATM   25  C   UNK N   1     -21.693  26.704 -13.259  0.00  0.00    -0.062 C 
HETATM   26  C   UNK N   1     -20.570  26.005 -14.014  0.00  0.00     0.048 C 
BRANCH  25  27
HETATM   27  C   UNK N   1     -22.586  27.649 -14.001  0.00  0.00     0.007 C 
HETATM   28  C   UNK N   1     -22.616  28.970 -13.748  0.00  0.00     0.001 C 
BRANCH  28  29
HETATM   29  C   UNK N   1     -23.527  29.872 -14.500  0.00  0.00     0.007 C 
HETATM   30  C   UNK N   1     -24.410  30.739 -13.938  0.00  0.00    -0.062 C 
HETATM   31  C   UNK N   1     -24.577  30.897 -12.433  0.00  0.00     0.048 C 
BRANCH  30  32
HETATM   32  C   UNK N   1     -25.263  31.560 -14.855  0.00  0.00     0.007 C 
HETATM   33  C   UNK N   1     -24.899  31.866 -16.119  0.00  0.00     0.009 C 
BRANCH  33  34
HETATM   34  C   UNK N   1     -25.729  32.680 -17.080  0.00  0.00    -0.048 C 
HETATM   35  C   UNK N   1     -25.175  34.082 -17.460  0.00  0.00    -0.018 C 
HETATM   36  C   UNK N   1     -26.216  34.934 -18.241  0.00  0.00     0.045 C 
HETATM   37  C   UNK N   1     -23.893  33.877 -18.301  0.00  0.00     0.020 C 
HETATM   38  C   UNK N   1     -24.803  34.924 -16.213  0.00  0.00     0.020 C 
HETATM   39  C   UNK N   1     -26.875  34.122 -19.340  0.00  0.00     0.123 C 
HETATM   40  C   UNK N   1     -27.673  32.998 -18.684  0.00  0.00     0.066 C 
HETATM   41  C   UNK N   1     -26.920  32.223 -17.617  0.00  0.00    -0.074 C 
HETATM   42  C   UNK N   1     -27.634  30.970 -17.145  0.00  0.00     0.044 C 
BRANCH  39  43
HETATM   43  O   UNK N   1     -27.752  34.919 -20.094  0.00  0.00    -0.395 OA
HETATM   44  H   UNK N   1     -28.265  35.472 -19.448  0.00  0.00     0.210 HD
ENDBRANCH  39  43
ENDBRANCH  33  34
ENDBRANCH  30  32
ENDBRANCH  28  29
ENDBRANCH  25  27
ENDBRANCH   2  24
TORSDOF 12
ENDMDL
MODEL 9
REMARK VINA RESULT:      -8.2     14.138     22.359
REMARK  12 active torsions:
REMARK  status: ('A' for Active; 'I' for Inactive)
REMARK    1  A    between atoms: O_1  and  C_7 
REMARK    2  A    between atoms: O_2  and  C_8 
REMARK    3  A    between atoms: C_9  and  C_19 
REMARK    4  A    between atoms: C_10  and  C_20 
REMARK    5  A    between atoms: C_23  and  C_25 
REMARK    6  A    between atoms: C_24  and  C_26 
REMARK    7  A    between atoms: C_29  and  C_31 
REMARK    8  A    between atoms: C_30  and  C_32 
REMARK    9  A    between atoms: C_33  and  C_35 
REMARK   10  A    between atoms: C_34  and  C_36 
REMARK   11  A    between atoms: C_39  and  C_41 
REMARK   12  A    between atoms: C_40  and  C_42 
ROOT
HETATM    1  C   UNK N   1     -29.937  38.485  -9.919  0.00  0.00     0.001 C 
HETATM    2  C   UNK N   1     -30.881  37.975 -10.721  0.00  0.00     0.001 C 
ENDROOT
BRANCH   1   3
HETATM    3  C   UNK N   1     -30.094  39.870  -9.398  0.00  0.00     0.007 C 
HETATM    4  C   UNK N   1     -30.457  40.214  -8.140  0.00  0.00    -0.062 C 
HETATM    5  C   UNK N   1     -30.753  39.196  -7.053  0.00  0.00     0.048 C 
BRANCH   4   6
HETATM    6  C   UNK N   1     -30.577  41.675  -7.837  0.00  0.00     0.007 C 
HETATM    7  C   UNK N   1     -30.288  42.637  -8.728  0.00  0.00     0.001 C 
BRANCH   7   8
HETATM    8  C   UNK N   1     -30.412  44.073  -8.360  0.00  0.00     0.007 C 
HETATM    9  C   UNK N   1     -30.901  45.010  -9.215  0.00  0.00    -0.062 C 
HETATM   10  C   UNK N   1     -31.367  44.605 -10.598  0.00  0.00     0.048 C 
BRANCH   9  11
HETATM   11  C   UNK N   1     -31.038  46.461  -8.856  0.00  0.00     0.007 C 
HETATM   12  C   UNK N   1     -31.272  47.474  -9.729  0.00  0.00     0.009 C 
BRANCH  12  13
HETATM   13  C   UNK N   1     -31.386  48.973  -9.445  0.00  0.00    -0.048 C 
HETATM   14  C   UNK N   1     -30.272  49.854 -10.091  0.00  0.00    -0.018 C 
HETATM   15  C   UNK N   1     -30.213  51.279  -9.469  0.00  0.00     0.045 C 
HETATM   16  C   UNK N   1     -28.857  49.257  -9.862  0.00  0.00     0.020 C 
HETATM   17  C   UNK N   1     -30.524  49.931 -11.617  0.00  0.00     0.020 C 
HETATM   18  C   UNK N   1     -31.583  51.916  -9.425  0.00  0.00     0.123 C 
HETATM   19  C   UNK N   1     -32.464  51.088  -8.502  0.00  0.00     0.066 C 
HETATM   20  C   UNK N   1     -32.390  49.578  -8.694  0.00  0.00    -0.074 C 
HETATM   21  C   UNK N   1     -33.506  48.835  -8.003  0.00  0.00     0.044 C 
BRANCH  18  22
HETATM   22  O   UNK N   1     -31.512  53.226  -8.923  0.00  0.00    -0.395 OA
HETATM   23  H   UNK N   1     -31.561  53.159  -7.935  0.00  0.00     0.210 HD
ENDBRANCH  18  22
ENDBRANCH  12  13
ENDBRANCH   9  11
ENDBRANCH   7   8
ENDBRANCH   4   6
ENDBRANCH   1   3
BRANCH   2  24
HETATM   24  C   UNK N   1     -30.776  36.588 -11.247  0.00  0.00     0.007 C 
HETATM   25  C   UNK N   1     -31.576  36.059 -12.209  0.00  0.00    -0.062 C 
HETATM   26  C   UNK N   1     -32.692  36.843 -12.884  0.00  0.00     0.048 C 
BRANCH  25  27
HETATM   27  C   UNK N   1     -31.343  34.636 -12.612  0.00  0.00     0.007 C 
HETATM   28  C   UNK N   1     -30.148  34.187 -13.037  0.00  0.00     0.001 C 
BRANCH  28  29
HETATM   29  C   UNK N   1     -29.963  32.768 -13.438  0.00  0.00     0.007 C 
HETATM   30  C   UNK N   1     -29.061  32.325 -14.353  0.00  0.00    -0.062 C 
HETATM   31  C   UNK N   1     -28.105  33.249 -15.094  0.00  0.00     0.048 C 
BRANCH  30  32
HETATM   32  C   UNK N   1     -29.027  30.857 -14.646  0.00  0.00     0.007 C 
HETATM   33  C   UNK N   1     -28.067  30.281 -15.401  0.00  0.00     0.009 C 
BRANCH  33  34
HETATM   34  C   UNK N   1     -27.987  28.807 -15.714  0.00  0.00    -0.048 C 
HETATM   35  C   UNK N   1     -28.331  28.387 -17.171  0.00  0.00    -0.018 C 
HETATM   36  C   UNK N   1     -28.468  26.845 -17.322  0.00  0.00     0.045 C 
HETATM   37  C   UNK N   1     -27.220  28.932 -18.099  0.00  0.00     0.020 C 
HETATM   38  C   UNK N   1     -29.686  28.973 -17.646  0.00  0.00     0.020 C 
HETATM   39  C   UNK N   1     -27.323  26.123 -16.639  0.00  0.00     0.123 C 
HETATM   40  C   UNK N   1     -27.416  26.400 -15.141  0.00  0.00     0.066 C 
HETATM   41  C   UNK N   1     -27.621  27.859 -14.774  0.00  0.00    -0.074 C 
HETATM   42  C   UNK N   1     -27.475  28.150 -13.292  0.00  0.00     0.044 C 
BRANCH  39  43
HETATM   43  O   UNK N   1     -27.409  24.738 -16.850  0.00  0.00    -0.395 OA
HETATM   44  H   UNK N   1     -28.311  24.456 -16.545  0.00  0.00     0.210 HD
ENDBRANCH  39  43
ENDBRANCH  33  34
ENDBRANCH  30  32
ENDBRANCH  28  29
ENDBRANCH  25  27
ENDBRANCH   2  24
TORSDOF 12
ENDMDL
