MODEL 1
REMARK VINA RESULT:      -7.6      0.000      0.000
REMARK  7 active torsions:
REMARK  status: ('A' for Active; 'I' for Inactive)
REMARK    1  A    between atoms: O_2  and  C_13 
REMARK    2  A    between atoms: O_3  and  C_15 
REMARK    3  A    between atoms: O_5  and  C_19 
REMARK    4  A    between atoms: O_6  and  C_21 
REMARK    5  A    between atoms: O_7  and  C_22 
REMARK    6  A    between atoms: O_8  and  C_23 
REMARK    7  A    between atoms: C_10  and  C_12 
ROOT
HETATM    1  O   UNK N   1     -17.942  23.727 -14.938  0.00  0.00    -0.306 OA
HETATM    2  O   UNK N   1     -21.385  25.689 -14.758  0.00  0.00    -0.284 OA
HETATM    3  C   UNK N   1     -19.468  25.258 -15.965  0.00  0.00     0.084 A 
HETATM    4  C   UNK N   1     -18.727  23.564 -13.882  0.00  0.00     0.123 A 
HETATM    5  C   UNK N   1     -18.251  24.521 -15.957  0.00  0.00     0.096 A 
HETATM    6  C   UNK N   1     -19.950  24.249 -13.797  0.00  0.00     0.152 A 
HETATM    7  C   UNK N   1     -20.325  25.100 -14.842  0.00  0.00     0.223 A 
HETATM    8  C   UNK N   1     -19.745  26.099 -17.095  0.00  0.00     0.085 A 
HETATM    9  C   UNK N   1     -17.353  24.617 -17.021  0.00  0.00     0.075 A 
HETATM   10  C   UNK N   1     -17.631  25.436 -18.111  0.00  0.00     0.071 A 
HETATM   11  C   UNK N   1     -18.819  26.169 -18.144  0.00  0.00     0.074 A 
ENDROOT
BRANCH   4  12
HETATM   12  C   UNK N   1     -18.284  22.653 -12.819  0.00  0.00     0.006 A 
HETATM   13  C   UNK N   1     -18.057  21.305 -13.107  0.00  0.00     0.054 A 
HETATM   14  C   UNK N   1     -17.617  20.428 -12.110  0.00  0.00     0.102 A 
HETATM   15  C   UNK N   1     -17.391  20.919 -10.796  0.00  0.00     0.132 A 
HETATM   16  C   UNK N   1     -17.640  22.278 -10.513  0.00  0.00     0.102 A 
HETATM   17  C   UNK N   1     -18.083  23.135 -11.523  0.00  0.00     0.054 A 
BRANCH  14  18
HETATM   18  O   UNK N   1     -17.431  19.130 -12.441  0.00  0.00    -0.358 OA
HETATM   19  H   UNK N   1     -17.305  18.814 -13.343  0.00  0.00     0.218 HD
ENDBRANCH  14  18
BRANCH  15  20
HETATM   20  O   UNK N   1     -16.930  20.122  -9.805  0.00  0.00    -0.356 OA
HETATM   21  H   UNK N   1     -17.259  19.233  -9.627  0.00  0.00     0.218 HD
ENDBRANCH  15  20
BRANCH  16  22
HETATM   22  O   UNK N   1     -17.452  22.776  -9.271  0.00  0.00    -0.358 OA
HETATM   23  H   UNK N   1     -16.703  22.519  -8.717  0.00  0.00     0.218 HD
ENDBRANCH  16  22
ENDBRANCH   4  12
BRANCH   6  24
HETATM   24  O   UNK N   1     -20.769  24.103 -12.729  0.00  0.00    -0.355 OA
HETATM   25  H   UNK N   1     -20.892  23.260 -12.271  0.00  0.00     0.218 HD
ENDBRANCH   6  24
BRANCH   8  26
HETATM   26  O   UNK N   1     -20.867  26.849 -17.224  0.00  0.00    -0.360 OA
HETATM   27  H   UNK N   1     -21.625  26.853 -16.636  0.00  0.00     0.217 HD
ENDBRANCH   8  26
BRANCH  10  28
HETATM   28  O   UNK N   1     -16.748  25.512 -19.127  0.00  0.00    -0.361 OA
HETATM   29  H   UNK N   1     -16.587  24.764 -19.720  0.00  0.00     0.217 HD
ENDBRANCH  10  28
TORSDOF 7
ENDMDL
MODEL 2
REMARK VINA RESULT:      -7.3      2.454      8.028
REMARK  7 active torsions:
REMARK  status: ('A' for Active; 'I' for Inactive)
REMARK    1  A    between atoms: O_2  and  C_13 
REMARK    2  A    between atoms: O_3  and  C_15 
REMARK    3  A    between atoms: O_5  and  C_19 
REMARK    4  A    between atoms: O_6  and  C_21 
REMARK    5  A    between atoms: O_7  and  C_22 
REMARK    6  A    between atoms: O_8  and  C_23 
REMARK    7  A    between atoms: C_10  and  C_12 
ROOT
HETATM    1  O   UNK N   1     -17.069  20.854 -10.565  0.00  0.00    -0.306 OA
HETATM    2  O   UNK N   1     -19.220  22.200  -7.515  0.00  0.00    -0.284 OA
HETATM    3  C   UNK N   1     -17.509  20.819  -8.213  0.00  0.00     0.084 A 
HETATM    4  C   UNK N   1     -18.027  21.743 -10.789  0.00  0.00     0.123 A 
HETATM    5  C   UNK N   1     -16.782  20.385  -9.356  0.00  0.00     0.096 A 
HETATM    6  C   UNK N   1     -18.801  22.233  -9.724  0.00  0.00     0.152 A 
HETATM    7  C   UNK N   1     -18.543  21.770  -8.429  0.00  0.00     0.223 A 
HETATM    8  C   UNK N   1     -17.153  20.274  -6.934  0.00  0.00     0.085 A 
HETATM    9  C   UNK N   1     -15.750  19.453  -9.232  0.00  0.00     0.075 A 
HETATM   10  C   UNK N   1     -15.413  18.931  -7.988  0.00  0.00     0.071 A 
HETATM   11  C   UNK N   1     -16.111  19.341  -6.850  0.00  0.00     0.074 A 
ENDROOT
BRANCH   4  12
HETATM   12  C   UNK N   1     -18.249  22.196 -12.167  0.00  0.00     0.006 A 
HETATM   13  C   UNK N   1     -19.001  23.348 -12.410  0.00  0.00     0.054 A 
HETATM   14  C   UNK N   1     -19.207  23.803 -13.717  0.00  0.00     0.102 A 
HETATM   15  C   UNK N   1     -18.633  23.091 -14.804  0.00  0.00     0.132 A 
HETATM   16  C   UNK N   1     -17.889  21.920 -14.548  0.00  0.00     0.102 A 
HETATM   17  C   UNK N   1     -17.701  21.481 -13.235  0.00  0.00     0.054 A 
BRANCH  14  18
HETATM   18  O   UNK N   1     -19.958  24.914 -13.893  0.00  0.00    -0.358 OA
HETATM   19  H   UNK N   1     -20.635  25.007 -14.573  0.00  0.00     0.218 HD
ENDBRANCH  14  18
BRANCH  15  20
HETATM   20  O   UNK N   1     -18.768  23.509 -16.083  0.00  0.00    -0.356 OA
HETATM   21  H   UNK N   1     -18.053  23.889 -16.608  0.00  0.00     0.218 HD
ENDBRANCH  15  20
BRANCH  16  22
HETATM   22  O   UNK N   1     -17.344  21.208 -15.558  0.00  0.00    -0.358 OA
HETATM   23  H   UNK N   1     -17.694  21.233 -16.459  0.00  0.00     0.218 HD
ENDBRANCH  16  22
ENDBRANCH   4  12
BRANCH   6  24
HETATM   24  O   UNK N   1     -19.787  23.138  -9.924  0.00  0.00    -0.355 OA
HETATM   25  H   UNK N   1     -19.801  24.005  -9.495  0.00  0.00     0.218 HD
ENDBRANCH   6  24
BRANCH   8  26
HETATM   26  O   UNK N   1     -17.765  20.605  -5.771  0.00  0.00    -0.360 OA
HETATM   27  H   UNK N   1     -18.655  20.366  -5.503  0.00  0.00     0.217 HD
ENDBRANCH   8  26
BRANCH  10  28
HETATM   28  O   UNK N   1     -14.412  18.032  -7.894  0.00  0.00    -0.361 OA
HETATM   29  H   UNK N   1     -13.801  17.871  -8.628  0.00  0.00     0.217 HD
ENDBRANCH  10  28
TORSDOF 7
ENDMDL
MODEL 3
REMARK VINA RESULT:      -7.3      3.761      9.707
REMARK  7 active torsions:
REMARK  status: ('A' for Active; 'I' for Inactive)
REMARK    1  A    between atoms: O_2  and  C_13 
REMARK    2  A    between atoms: O_3  and  C_15 
REMARK    3  A    between atoms: O_5  and  C_19 
REMARK    4  A    between atoms: O_6  and  C_21 
REMARK    5  A    between atoms: O_7  and  C_22 
REMARK    6  A    between atoms: O_8  and  C_23 
REMARK    7  A    between atoms: C_10  and  C_12 
ROOT
HETATM    1  O   UNK N   1     -17.780  20.204  -8.052  0.00  0.00    -0.306 OA
HETATM    2  O   UNK N   1     -14.336  18.236  -8.123  0.00  0.00    -0.284 OA
HETATM    3  C   UNK N   1     -16.224  18.783  -6.917  0.00  0.00     0.084 A 
HETATM    4  C   UNK N   1     -17.024  20.257  -9.141  0.00  0.00     0.123 A 
HETATM    5  C   UNK N   1     -17.443  19.515  -6.968  0.00  0.00     0.096 A 
HETATM    6  C   UNK N   1     -15.802  19.568  -9.187  0.00  0.00     0.152 A 
HETATM    7  C   UNK N   1     -15.397  18.828  -8.072  0.00  0.00     0.223 A 
HETATM    8  C   UNK N   1     -15.917  18.059  -5.717  0.00  0.00     0.085 A 
HETATM    9  C   UNK N   1     -18.314  19.524  -5.877  0.00  0.00     0.075 A 
HETATM   10  C   UNK N   1     -18.007  18.819  -4.719  0.00  0.00     0.071 A 
HETATM   11  C   UNK N   1     -16.816  18.093  -4.643  0.00  0.00     0.074 A 
ENDROOT
BRANCH   4  12
HETATM   12  C   UNK N   1     -17.503  21.046 -10.283  0.00  0.00     0.006 A 
HETATM   13  C   UNK N   1     -17.366  20.547 -11.580  0.00  0.00     0.054 A 
HETATM   14  C   UNK N   1     -17.833  21.278 -12.678  0.00  0.00     0.102 A 
HETATM   15  C   UNK N   1     -18.461  22.534 -12.465  0.00  0.00     0.132 A 
HETATM   16  C   UNK N   1     -18.579  23.036 -11.153  0.00  0.00     0.102 A 
HETATM   17  C   UNK N   1     -18.101  22.291 -10.072  0.00  0.00     0.054 A 
BRANCH  14  18
HETATM   18  O   UNK N   1     -17.658  20.754 -13.913  0.00  0.00    -0.358 OA
HETATM   19  H   UNK N   1     -17.919  21.194 -14.729  0.00  0.00     0.218 HD
ENDBRANCH  14  18
BRANCH  15  20
HETATM   20  O   UNK N   1     -18.964  23.264 -13.488  0.00  0.00    -0.356 OA
HETATM   21  H   UNK N   1     -18.505  24.004 -13.903  0.00  0.00     0.218 HD
ENDBRANCH  15  20
BRANCH  16  22
HETATM   22  O   UNK N   1     -19.155  24.234 -10.915  0.00  0.00    -0.358 OA
HETATM   23  H   UNK N   1     -19.395  24.845 -11.625  0.00  0.00     0.218 HD
ENDBRANCH  16  22
ENDBRANCH   4  12
BRANCH   6  24
HETATM   24  O   UNK N   1     -15.009  19.607 -10.284  0.00  0.00    -0.355 OA
HETATM   25  H   UNK N   1     -15.171  19.066 -11.070  0.00  0.00     0.218 HD
ENDBRANCH   6  24
BRANCH   8  26
HETATM   26  O   UNK N   1     -14.791  17.324  -5.542  0.00  0.00    -0.360 OA
HETATM   27  H   UNK N   1     -14.321  16.825  -6.214  0.00  0.00     0.217 HD
ENDBRANCH   8  26
BRANCH  10  28
HETATM   28  O   UNK N   1     -18.864  18.844  -3.678  0.00  0.00    -0.361 OA
HETATM   29  H   UNK N   1     -18.924  19.607  -3.085  0.00  0.00     0.217 HD
ENDBRANCH  10  28
TORSDOF 7
ENDMDL
MODEL 4
REMARK VINA RESULT:      -7.3      1.234      3.465
REMARK  7 active torsions:
REMARK  status: ('A' for Active; 'I' for Inactive)
REMARK    1  A    between atoms: O_2  and  C_13 
REMARK    2  A    between atoms: O_3  and  C_15 
REMARK    3  A    between atoms: O_5  and  C_19 
REMARK    4  A    between atoms: O_6  and  C_21 
REMARK    5  A    between atoms: O_7  and  C_22 
REMARK    6  A    between atoms: O_8  and  C_23 
REMARK    7  A    between atoms: C_10  and  C_12 
ROOT
HETATM    1  O   UNK N   1     -20.084  24.146 -13.808  0.00  0.00    -0.306 OA
HETATM    2  O   UNK N   1     -18.083  24.816 -17.168  0.00  0.00    -0.284 OA
HETATM    3  C   UNK N   1     -19.984  25.242 -15.934  0.00  0.00     0.084 A 
HETATM    4  C   UNK N   1     -18.904  23.567 -13.988  0.00  0.00     0.123 A 
HETATM    5  C   UNK N   1     -20.640  24.953 -14.705  0.00  0.00     0.096 A 
HETATM    6  C   UNK N   1     -18.179  23.790 -15.169  0.00  0.00     0.152 A 
HETATM    7  C   UNK N   1     -18.718  24.630 -16.148  0.00  0.00     0.223 A 
HETATM    8  C   UNK N   1     -20.636  26.121 -16.862  0.00  0.00     0.085 A 
HETATM    9  C   UNK N   1     -21.885  25.512 -14.414  0.00  0.00     0.075 A 
HETATM   10  C   UNK N   1     -22.509  26.362 -15.320  0.00  0.00     0.071 A 
HETATM   11  C   UNK N   1     -21.886  26.663 -16.534  0.00  0.00     0.074 A 
ENDROOT
BRANCH   4  12
HETATM   12  C   UNK N   1     -18.385  22.700 -12.923  0.00  0.00     0.006 A 
HETATM   13  C   UNK N   1     -18.145  23.226 -11.651  0.00  0.00     0.054 A 
HETATM   14  C   UNK N   1     -17.667  22.410 -10.620  0.00  0.00     0.102 A 
HETATM   15  C   UNK N   1     -17.437  21.030 -10.871  0.00  0.00     0.132 A 
HETATM   16  C   UNK N   1     -17.667  20.514 -12.163  0.00  0.00     0.102 A 
HETATM   17  C   UNK N   1     -18.139  21.349 -13.178  0.00  0.00     0.054 A 
BRANCH  14  18
HETATM   18  O   UNK N   1     -17.436  22.976  -9.414  0.00  0.00    -0.358 OA
HETATM   19  H   UNK N   1     -16.589  23.349  -9.145  0.00  0.00     0.218 HD
ENDBRANCH  14  18
BRANCH  15  20
HETATM   20  O   UNK N   1     -17.012  20.189  -9.900  0.00  0.00    -0.356 OA
HETATM   21  H   UNK N   1     -16.736  20.472  -9.020  0.00  0.00     0.218 HD
ENDBRANCH  15  20
BRANCH  16  22
HETATM   22  O   UNK N   1     -17.442  19.211 -12.441  0.00  0.00    -0.358 OA
HETATM   23  H   UNK N   1     -16.840  18.665 -11.918  0.00  0.00     0.218 HD
ENDBRANCH  16  22
ENDBRANCH   4  12
BRANCH   6  24
HETATM   24  O   UNK N   1     -16.974  23.210 -15.379  0.00  0.00    -0.355 OA
HETATM   25  H   UNK N   1     -16.175  23.716 -15.586  0.00  0.00     0.218 HD
ENDBRANCH   6  24
BRANCH   8  26
HETATM   26  O   UNK N   1     -20.118  26.475 -18.063  0.00  0.00    -0.360 OA
HETATM   27  H   UNK N   1     -19.416  27.110 -18.220  0.00  0.00     0.217 HD
ENDBRANCH   8  26
BRANCH  10  28
HETATM   28  O   UNK N   1     -23.713  26.891 -15.016  0.00  0.00    -0.361 OA
HETATM   29  H   UNK N   1     -23.969  27.081 -14.102  0.00  0.00     0.217 HD
ENDBRANCH  10  28
TORSDOF 7
ENDMDL
MODEL 5
REMARK VINA RESULT:      -7.2      1.868      3.193
REMARK  7 active torsions:
REMARK  status: ('A' for Active; 'I' for Inactive)
REMARK    1  A    between atoms: O_2  and  C_13 
REMARK    2  A    between atoms: O_3  and  C_15 
REMARK    3  A    between atoms: O_5  and  C_19 
REMARK    4  A    between atoms: O_6  and  C_21 
REMARK    5  A    between atoms: O_7  and  C_22 
REMARK    6  A    between atoms: O_8  and  C_23 
REMARK    7  A    between atoms: C_10  and  C_12 
ROOT
HETATM    1  O   UNK N   1     -17.956  22.581 -12.587  0.00  0.00    -0.306 OA
HETATM    2  O   UNK N   1     -21.566  24.192 -12.248  0.00  0.00    -0.284 OA
HETATM    3  C   UNK N   1     -19.743  23.805 -13.606  0.00  0.00     0.084 A 
HETATM    4  C   UNK N   1     -18.608  22.478 -11.436  0.00  0.00     0.123 A 
HETATM    5  C   UNK N   1     -18.455  23.202 -13.650  0.00  0.00     0.096 A 
HETATM    6  C   UNK N   1     -19.887  23.040 -11.294  0.00  0.00     0.152 A 
HETATM    7  C   UNK N   1     -20.459  23.707 -12.382  0.00  0.00     0.223 A 
HETATM    8  C   UNK N   1     -20.226  24.461 -14.787  0.00  0.00     0.085 A 
HETATM    9  C   UNK N   1     -17.685  23.251 -14.813  0.00  0.00     0.075 A 
HETATM   10  C   UNK N   1     -18.162  23.890 -15.952  0.00  0.00     0.071 A 
HETATM   11  C   UNK N   1     -19.424  24.489 -15.936  0.00  0.00     0.074 A 
ENDROOT
BRANCH   4  12
HETATM   12  C   UNK N   1     -17.960  21.761 -10.331  0.00  0.00     0.006 A 
HETATM   13  C   UNK N   1     -18.442  21.908  -9.028  0.00  0.00     0.054 A 
HETATM   14  C   UNK N   1     -17.846  21.218  -7.966  0.00  0.00     0.102 A 
HETATM   15  C   UNK N   1     -16.749  20.353  -8.222  0.00  0.00     0.132 A 
HETATM   16  C   UNK N   1     -16.260  20.226  -9.538  0.00  0.00     0.102 A 
HETATM   17  C   UNK N   1     -16.867  20.928 -10.582  0.00  0.00     0.054 A 
BRANCH  14  18
HETATM   18  O   UNK N   1     -18.343  21.412  -6.723  0.00  0.00    -0.358 OA
HETATM   19  H   UNK N   1     -18.396  22.270  -6.288  0.00  0.00     0.218 HD
ENDBRANCH  14  18
BRANCH  15  20
HETATM   20  O   UNK N   1     -16.161  19.634  -7.237  0.00  0.00    -0.356 OA
HETATM   21  H   UNK N   1     -16.171  18.671  -7.191  0.00  0.00     0.218 HD
ENDBRANCH  15  20
BRANCH  16  22
HETATM   22  O   UNK N   1     -15.207  19.426  -9.816  0.00  0.00    -0.358 OA
HETATM   23  H   UNK N   1     -14.314  19.613  -9.495  0.00  0.00     0.218 HD
ENDBRANCH  16  22
ENDBRANCH   4  12
BRANCH   6  24
HETATM   24  O   UNK N   1     -20.573  22.952 -10.130  0.00  0.00    -0.355 OA
HETATM   25  H   UNK N   1     -21.460  23.319 -10.013  0.00  0.00     0.218 HD
ENDBRANCH   6  24
BRANCH   8  26
HETATM   26  O   UNK N   1     -21.433  25.071 -14.876  0.00  0.00    -0.360 OA
HETATM   27  H   UNK N   1     -22.274  24.654 -15.080  0.00  0.00     0.217 HD
ENDBRANCH   8  26
BRANCH  10  28
HETATM   28  O   UNK N   1     -17.400  23.923 -17.064  0.00  0.00    -0.361 OA
HETATM   29  H   UNK N   1     -17.080  23.113 -17.487  0.00  0.00     0.217 HD
ENDBRANCH  10  28
TORSDOF 7
ENDMDL
MODEL 6
REMARK VINA RESULT:      -7.1      6.183     11.899
REMARK  7 active torsions:
REMARK  status: ('A' for Active; 'I' for Inactive)
REMARK    1  A    between atoms: O_2  and  C_13 
REMARK    2  A    between atoms: O_3  and  C_15 
REMARK    3  A    between atoms: O_5  and  C_19 
REMARK    4  A    between atoms: O_6  and  C_21 
REMARK    5  A    between atoms: O_7  and  C_22 
REMARK    6  A    between atoms: O_8  and  C_23 
REMARK    7  A    between atoms: C_10  and  C_12 
ROOT
HETATM    1  O   UNK N   1     -14.976  18.615  -5.879  0.00  0.00    -0.306 OA
HETATM    2  O   UNK N   1     -17.846  16.630  -3.992  0.00  0.00    -0.284 OA
HETATM    3  C   UNK N   1     -15.605  17.167  -4.081  0.00  0.00     0.084 A 
HETATM    4  C   UNK N   1     -16.221  18.688  -6.331  0.00  0.00     0.123 A 
HETATM    5  C   UNK N   1     -14.633  17.906  -4.810  0.00  0.00     0.096 A 
HETATM    6  C   UNK N   1     -17.252  17.993  -5.679  0.00  0.00     0.152 A 
HETATM    7  C   UNK N   1     -16.946  17.229  -4.549  0.00  0.00     0.223 A 
HETATM    8  C   UNK N   1     -15.171  16.419  -2.935  0.00  0.00     0.085 A 
HETATM    9  C   UNK N   1     -13.293  17.901  -4.418  0.00  0.00     0.075 A 
HETATM   10  C   UNK N   1     -12.883  17.173  -3.306  0.00  0.00     0.071 A 
HETATM   11  C   UNK N   1     -13.818  16.439  -2.573  0.00  0.00     0.074 A 
ENDROOT
BRANCH   4  12
HETATM   12  C   UNK N   1     -16.483  19.511  -7.518  0.00  0.00     0.006 A 
HETATM   13  C   UNK N   1     -15.771  19.278  -8.698  0.00  0.00     0.054 A 
HETATM   14  C   UNK N   1     -16.022  20.041  -9.844  0.00  0.00     0.102 A 
HETATM   15  C   UNK N   1     -17.018  21.054  -9.805  0.00  0.00     0.132 A 
HETATM   16  C   UNK N   1     -17.718  21.291  -8.604  0.00  0.00     0.102 A 
HETATM   17  C   UNK N   1     -17.448  20.520  -7.471  0.00  0.00     0.054 A 
BRANCH  14  18
HETATM   18  O   UNK N   1     -15.291  19.784 -10.952  0.00  0.00    -0.358 OA
HETATM   19  H   UNK N   1     -15.628  19.320 -11.727  0.00  0.00     0.218 HD
ENDBRANCH  14  18
BRANCH  15  20
HETATM   20  O   UNK N   1     -17.326  21.795 -10.895  0.00  0.00    -0.356 OA
HETATM   21  H   UNK N   1     -16.878  21.719 -11.746  0.00  0.00     0.218 HD
ENDBRANCH  15  20
BRANCH  16  22
HETATM   22  O   UNK N   1     -18.659  22.257  -8.527  0.00  0.00    -0.358 OA
HETATM   23  H   UNK N   1     -19.192  22.400  -7.733  0.00  0.00     0.218 HD
ENDBRANCH  16  22
ENDBRANCH   4  12
BRANCH   6  24
HETATM   24  O   UNK N   1     -18.530  18.047  -6.121  0.00  0.00    -0.355 OA
HETATM   25  H   UNK N   1     -19.062  18.855  -6.095  0.00  0.00     0.218 HD
ENDBRANCH   6  24
BRANCH   8  26
HETATM   26  O   UNK N   1     -15.996  15.677  -2.157  0.00  0.00    -0.360 OA
HETATM   27  H   UNK N   1     -15.970  15.603  -1.200  0.00  0.00     0.217 HD
ENDBRANCH   8  26
BRANCH  10  28
HETATM   28  O   UNK N   1     -11.583  17.183  -2.947  0.00  0.00    -0.361 OA
HETATM   29  H   UNK N   1     -11.118  18.008  -2.743  0.00  0.00     0.217 HD
ENDBRANCH  10  28
TORSDOF 7
ENDMDL
MODEL 7
REMARK VINA RESULT:      -7.1      6.186     11.996
REMARK  7 active torsions:
REMARK  status: ('A' for Active; 'I' for Inactive)
REMARK    1  A    between atoms: O_2  and  C_13 
REMARK    2  A    between atoms: O_3  and  C_15 
REMARK    3  A    between atoms: O_5  and  C_19 
REMARK    4  A    between atoms: O_6  and  C_21 
REMARK    5  A    between atoms: O_7  and  C_22 
REMARK    6  A    between atoms: O_8  and  C_23 
REMARK    7  A    between atoms: C_10  and  C_12 
ROOT
HETATM    1  O   UNK N   1     -14.978  18.593  -5.893  0.00  0.00    -0.306 OA
HETATM    2  O   UNK N   1     -17.830  16.608  -3.977  0.00  0.00    -0.284 OA
HETATM    3  C   UNK N   1     -15.590  17.146  -4.087  0.00  0.00     0.084 A 
HETATM    4  C   UNK N   1     -16.228  18.664  -6.334  0.00  0.00     0.123 A 
HETATM    5  C   UNK N   1     -14.625  17.885  -4.827  0.00  0.00     0.096 A 
HETATM    6  C   UNK N   1     -17.252  17.969  -5.671  0.00  0.00     0.152 A 
HETATM    7  C   UNK N   1     -16.935  17.206  -4.543  0.00  0.00     0.223 A 
HETATM    8  C   UNK N   1     -15.145  16.400  -2.945  0.00  0.00     0.085 A 
HETATM    9  C   UNK N   1     -13.281  17.881  -4.447  0.00  0.00     0.075 A 
HETATM   10  C   UNK N   1     -12.860  17.154  -3.339  0.00  0.00     0.071 A 
HETATM   11  C   UNK N   1     -13.788  16.421  -2.595  0.00  0.00     0.074 A 
ENDROOT
BRANCH   4  12
HETATM   12  C   UNK N   1     -16.502  19.485  -7.519  0.00  0.00     0.006 A 
HETATM   13  C   UNK N   1     -17.462  20.498  -7.458  0.00  0.00     0.054 A 
HETATM   14  C   UNK N   1     -17.722  21.302  -8.573  0.00  0.00     0.102 A 
HETATM   15  C   UNK N   1     -16.993  21.089  -9.774  0.00  0.00     0.132 A 
HETATM   16  C   UNK N   1     -16.039  20.052  -9.830  0.00  0.00     0.102 A 
HETATM   17  C   UNK N   1     -15.799  19.259  -8.705  0.00  0.00     0.054 A 
BRANCH  14  18
HETATM   18  O   UNK N   1     -18.674  22.256  -8.462  0.00  0.00    -0.358 OA
HETATM   19  H   UNK N   1     -19.172  22.433  -7.656  0.00  0.00     0.218 HD
ENDBRANCH  14  18
BRANCH  15  20
HETATM   20  O   UNK N   1     -17.179  21.861 -10.869  0.00  0.00    -0.356 OA
HETATM   21  H   UNK N   1     -17.817  21.667 -11.567  0.00  0.00     0.218 HD
ENDBRANCH  15  20
BRANCH  16  22
HETATM   22  O   UNK N   1     -15.340  19.810 -10.960  0.00  0.00    -0.358 OA
HETATM   23  H   UNK N   1     -15.760  19.758 -11.829  0.00  0.00     0.218 HD
ENDBRANCH  16  22
ENDBRANCH   4  12
BRANCH   6  24
HETATM   24  O   UNK N   1     -18.535  18.022  -6.101  0.00  0.00    -0.355 OA
HETATM   25  H   UNK N   1     -18.871  18.730  -6.668  0.00  0.00     0.218 HD
ENDBRANCH   6  24
BRANCH   8  26
HETATM   26  O   UNK N   1     -15.962  15.658  -2.158  0.00  0.00    -0.360 OA
HETATM   27  H   UNK N   1     -16.382  14.827  -2.390  0.00  0.00     0.217 HD
ENDBRANCH   8  26
BRANCH  10  28
HETATM   28  O   UNK N   1     -11.557  17.166  -2.992  0.00  0.00    -0.361 OA
HETATM   29  H   UNK N   1     -10.856  17.004  -3.640  0.00  0.00     0.217 HD
ENDBRANCH  10  28
TORSDOF 7
ENDMDL
MODEL 8
REMARK VINA RESULT:      -7.0      6.105      9.724
REMARK  7 active torsions:
REMARK  status: ('A' for Active; 'I' for Inactive)
REMARK    1  A    between atoms: O_2  and  C_13 
REMARK    2  A    between atoms: O_3  and  C_15 
REMARK    3  A    between atoms: O_5  and  C_19 
REMARK    4  A    between atoms: O_6  and  C_21 
REMARK    5  A    between atoms: O_7  and  C_22 
REMARK    6  A    between atoms: O_8  and  C_23 
REMARK    7  A    between atoms: C_10  and  C_12 
ROOT
HETATM    1  O   UNK N   1     -16.600  19.002  -6.636  0.00  0.00    -0.306 OA
HETATM    2  O   UNK N   1     -19.454  21.757  -6.575  0.00  0.00    -0.284 OA
HETATM    3  C   UNK N   1     -17.783  20.733  -7.790  0.00  0.00     0.084 A 
HETATM    4  C   UNK N   1     -17.328  19.159  -5.538  0.00  0.00     0.123 A 
HETATM    5  C   UNK N   1     -16.780  19.726  -7.735  0.00  0.00     0.096 A 
HETATM    6  C   UNK N   1     -18.343  20.128  -5.495  0.00  0.00     0.152 A 
HETATM    7  C   UNK N   1     -18.574  20.920  -6.624  0.00  0.00     0.223 A 
HETATM    8  C   UNK N   1     -17.927  21.482  -9.006  0.00  0.00     0.085 A 
HETATM    9  C   UNK N   1     -15.960  19.477  -8.836  0.00  0.00     0.075 A 
HETATM   10  C   UNK N   1     -16.107  20.209 -10.010  0.00  0.00     0.071 A 
HETATM   11  C   UNK N   1     -17.085  21.203 -10.090  0.00  0.00     0.074 A 
ENDROOT
BRANCH   4  12
HETATM   12  C   UNK N   1     -17.044  18.295  -4.386  0.00  0.00     0.006 A 
HETATM   13  C   UNK N   1     -16.213  18.752  -3.361  0.00  0.00     0.054 A 
HETATM   14  C   UNK N   1     -15.947  17.948  -2.247  0.00  0.00     0.102 A 
HETATM   15  C   UNK N   1     -16.538  16.660  -2.157  0.00  0.00     0.132 A 
HETATM   16  C   UNK N   1     -17.362  16.202  -3.206  0.00  0.00     0.102 A 
HETATM   17  C   UNK N   1     -17.610  17.020  -4.311  0.00  0.00     0.054 A 
BRANCH  14  18
HETATM   18  O   UNK N   1     -15.121  18.435  -1.293  0.00  0.00    -0.358 OA
HETATM   19  H   UNK N   1     -15.273  19.257  -0.814  0.00  0.00     0.218 HD
ENDBRANCH  14  18
BRANCH  15  20
HETATM   20  O   UNK N   1     -16.344  15.857  -1.085  0.00  0.00    -0.356 OA
HETATM   21  H   UNK N   1     -17.044  15.354  -0.651  0.00  0.00     0.218 HD
ENDBRANCH  15  20
BRANCH  16  22
HETATM   22  O   UNK N   1     -17.927  14.976  -3.162  0.00  0.00    -0.358 OA
HETATM   23  H   UNK N   1     -18.749  14.766  -3.628  0.00  0.00     0.218 HD
ENDBRANCH  16  22
ENDBRANCH   4  12
BRANCH   6  24
HETATM   24  O   UNK N   1     -19.099  20.311  -4.386  0.00  0.00    -0.355 OA
HETATM   25  H   UNK N   1     -18.990  21.069  -3.795  0.00  0.00     0.218 HD
ENDBRANCH   6  24
BRANCH   8  26
HETATM   26  O   UNK N   1     -18.843  22.465  -9.187  0.00  0.00    -0.360 OA
HETATM   27  H   UNK N   1     -18.719  23.403  -9.021  0.00  0.00     0.217 HD
ENDBRANCH   8  26
BRANCH  10  28
HETATM   28  O   UNK N   1     -15.303  19.949 -11.061  0.00  0.00    -0.361 OA
HETATM   29  H   UNK N   1     -14.521  19.384 -10.976  0.00  0.00     0.217 HD
ENDBRANCH  10  28
TORSDOF 7
ENDMDL
MODEL 9
REMARK VINA RESULT:      -6.9      1.847      3.747
REMARK  7 active torsions:
REMARK  status: ('A' for Active; 'I' for Inactive)
REMARK    1  A    between atoms: O_2  and  C_13 
REMARK    2  A    between atoms: O_3  and  C_15 
REMARK    3  A    between atoms: O_5  and  C_19 
REMARK    4  A    between atoms: O_6  and  C_21 
REMARK    5  A    between atoms: O_7  and  C_22 
REMARK    6  A    between atoms: O_8  and  C_23 
REMARK    7  A    between atoms: C_10  and  C_12 
ROOT
HETATM    1  O   UNK N   1     -19.981  24.115 -16.423  0.00  0.00    -0.306 OA
HETATM    2  O   UNK N   1     -16.944  25.782 -18.357  0.00  0.00    -0.284 OA
HETATM    3  C   UNK N   1     -19.209  25.350 -18.322  0.00  0.00     0.084 A 
HETATM    4  C   UNK N   1     -18.762  24.042 -15.904  0.00  0.00     0.123 A 
HETATM    5  C   UNK N   1     -20.245  24.728 -17.571  0.00  0.00     0.096 A 
HETATM    6  C   UNK N   1     -17.673  24.625 -16.572  0.00  0.00     0.152 A 
HETATM    7  C   UNK N   1     -17.894  25.282 -17.786  0.00  0.00     0.223 A 
HETATM    8  C   UNK N   1     -19.558  25.996 -19.555  0.00  0.00     0.085 A 
HETATM    9  C   UNK N   1     -21.565  24.749 -18.025  0.00  0.00     0.075 A 
HETATM   10  C   UNK N   1     -21.892  25.377 -19.221  0.00  0.00     0.071 A 
HETATM   11  C   UNK N   1     -20.894  25.995 -19.978  0.00  0.00     0.074 A 
ENDROOT
BRANCH   4  12
HETATM   12  C   UNK N   1     -18.591  23.344 -14.624  0.00  0.00     0.006 A 
HETATM   13  C   UNK N   1     -19.068  23.924 -13.446  0.00  0.00     0.054 A 
HETATM   14  C   UNK N   1     -18.930  23.264 -12.220  0.00  0.00     0.102 A 
HETATM   15  C   UNK N   1     -18.307  21.988 -12.179  0.00  0.00     0.132 A 
HETATM   16  C   UNK N   1     -17.813  21.421 -13.372  0.00  0.00     0.102 A 
HETATM   17  C   UNK N   1     -17.958  22.099 -14.584  0.00  0.00     0.054 A 
BRANCH  14  18
HETATM   18  O   UNK N   1     -19.395  23.880 -11.109  0.00  0.00    -0.358 OA
HETATM   19  H   UNK N   1     -20.330  23.995 -10.905  0.00  0.00     0.218 HD
ENDBRANCH  14  18
BRANCH  15  20
HETATM   20  O   UNK N   1     -18.181  21.291 -11.026  0.00  0.00    -0.356 OA
HETATM   21  H   UNK N   1     -18.887  21.187 -10.376  0.00  0.00     0.218 HD
ENDBRANCH  15  20
BRANCH  16  22
HETATM   22  O   UNK N   1     -17.200  20.217 -13.368  0.00  0.00    -0.358 OA
HETATM   23  H   UNK N   1     -16.995  19.741 -12.551  0.00  0.00     0.218 HD
ENDBRANCH  16  22
ENDBRANCH   4  12
BRANCH   6  24
HETATM   24  O   UNK N   1     -16.418  24.563 -16.067  0.00  0.00    -0.355 OA
HETATM   25  H   UNK N   1     -15.663  24.233 -16.573  0.00  0.00     0.218 HD
ENDBRANCH   6  24
BRANCH   8  26
HETATM   26  O   UNK N   1     -18.668  26.623 -20.362  0.00  0.00    -0.360 OA
HETATM   27  H   UNK N   1     -18.186  26.236 -21.096  0.00  0.00     0.217 HD
ENDBRANCH   8  26
BRANCH  10  28
HETATM   28  O   UNK N   1     -23.175  25.384 -19.639  0.00  0.00    -0.361 OA
HETATM   29  H   UNK N   1     -23.900  25.647 -19.054  0.00  0.00     0.217 HD
ENDBRANCH  10  28
TORSDOF 7
ENDMDL
