MODEL 1
REMARK VINA RESULT:      -4.8      0.000      0.000
REMARK  6 active torsions:
REMARK  status: ('A' for Active; 'I' for Inactive)
REMARK    1  A    between atoms: O_2  and  C_8 
REMARK    2  A    between atoms: O_3  and  C_9 
REMARK    3  A    between atoms: O_4  and  C_10 
REMARK    4  A    between atoms: O_5  and  C_11 
REMARK    5  A    between atoms: C_7  and  C_8 
REMARK    6  A    between atoms: C_8  and  C_10 
ROOT
HETATM    1  O   UNK N   1     -29.351  19.813  -7.978  0.00  0.00    -0.301 OA
HETATM    2  O   UNK N   1     -31.432  20.343  -7.260  0.00  0.00    -0.257 OA
HETATM    3  C   UNK N   1     -28.735  18.736  -8.616  0.00  0.00     0.222 A 
HETATM    4  C   UNK N   1     -29.868  17.735  -8.741  0.00  0.00     0.114 A 
HETATM    5  C   UNK N   1     -30.978  18.244  -8.249  0.00  0.00     0.173 A 
HETATM    6  C   UNK N   1     -30.656  19.556  -7.773  0.00  0.00     0.320 A 
ENDROOT
BRANCH   3   7
HETATM    7  C   UNK N   1     -28.190  19.156  -9.996  0.00  0.00     0.177 C 
BRANCH   7   8
HETATM    8  O   UNK N   1     -29.125  18.888 -11.015  0.00  0.00    -0.390 OA
HETATM    9  H   UNK N   1     -28.744  18.184 -11.604  0.00  0.00     0.210 HD
ENDBRANCH   7   8
BRANCH   7  10
HETATM   10  C   UNK N   1     -27.791  20.636 -10.001  0.00  0.00     0.198 C 
BRANCH  10  11
HETATM   11  O   UNK N   1     -28.900  21.421 -10.335  0.00  0.00    -0.398 OA
HETATM   12  H   UNK N   1     -28.818  21.611 -11.305  0.00  0.00     0.209 HD
ENDBRANCH  10  11
ENDBRANCH   7  10
ENDBRANCH   3   7
BRANCH   4  13
HETATM   13  O   UNK N   1     -29.756  16.502  -9.275  0.00  0.00    -0.359 OA
HETATM   14  H   UNK N   1     -28.934  15.999  -9.177  0.00  0.00     0.217 HD
ENDBRANCH   4  13
BRANCH   5  15
HETATM   15  O   UNK N   1     -32.182  17.638  -8.204  0.00  0.00    -0.353 OA
HETATM   16  H   UNK N   1     -32.580  17.280  -9.010  0.00  0.00     0.218 HD
ENDBRANCH   5  15
TORSDOF 6
ENDMDL
MODEL 2
REMARK VINA RESULT:      -4.7     22.283     24.102
REMARK  6 active torsions:
REMARK  status: ('A' for Active; 'I' for Inactive)
REMARK    1  A    between atoms: O_2  and  C_8 
REMARK    2  A    between atoms: O_3  and  C_9 
REMARK    3  A    between atoms: O_4  and  C_10 
REMARK    4  A    between atoms: O_5  and  C_11 
REMARK    5  A    between atoms: C_7  and  C_8 
REMARK    6  A    between atoms: C_8  and  C_10 
ROOT
HETATM    1  O   UNK N   1     -29.955  43.661  -8.265  0.00  0.00    -0.301 OA
HETATM    2  O   UNK N   1     -30.725  45.735  -8.745  0.00  0.00    -0.257 OA
HETATM    3  C   UNK N   1     -30.332  42.596  -7.445  0.00  0.00     0.222 A 
HETATM    4  C   UNK N   1     -31.548  43.150  -6.726  0.00  0.00     0.114 A 
HETATM    5  C   UNK N   1     -31.807  44.370  -7.147  0.00  0.00     0.173 A 
HETATM    6  C   UNK N   1     -30.808  44.692  -8.121  0.00  0.00     0.320 A 
ENDROOT
BRANCH   3   7
HETATM    7  C   UNK N   1     -30.684  41.355  -8.288  0.00  0.00     0.177 C 
BRANCH   7   8
HETATM    8  O   UNK N   1     -30.116  41.436  -9.575  0.00  0.00    -0.390 OA
HETATM    9  H   UNK N   1     -30.822  41.746 -10.203  0.00  0.00     0.210 HD
ENDBRANCH   7   8
BRANCH   7  10
HETATM   10  C   UNK N   1     -30.242  40.068  -7.581  0.00  0.00     0.198 C 
BRANCH  10  11
HETATM   11  O   UNK N   1     -31.156  39.749  -6.571  0.00  0.00    -0.398 OA
HETATM   12  H   UNK N   1     -30.666  39.857  -5.715  0.00  0.00     0.209 HD
ENDBRANCH  10  11
ENDBRANCH   7  10
ENDBRANCH   3   7
BRANCH   4  13
HETATM   13  O   UNK N   1     -32.260  42.490  -5.789  0.00  0.00    -0.359 OA
HETATM   14  H   UNK N   1     -31.814  42.089  -5.029  0.00  0.00     0.217 HD
ENDBRANCH   4  13
BRANCH   5  15
HETATM   15  O   UNK N   1     -32.820  45.159  -6.732  0.00  0.00    -0.353 OA
HETATM   16  H   UNK N   1     -33.583  45.316  -7.306  0.00  0.00     0.218 HD
ENDBRANCH   5  15
TORSDOF 6
ENDMDL
MODEL 3
REMARK VINA RESULT:      -4.7     22.105     23.573
REMARK  6 active torsions:
REMARK  status: ('A' for Active; 'I' for Inactive)
REMARK    1  A    between atoms: O_2  and  C_8 
REMARK    2  A    between atoms: O_3  and  C_9 
REMARK    3  A    between atoms: O_4  and  C_10 
REMARK    4  A    between atoms: O_5  and  C_11 
REMARK    5  A    between atoms: C_7  and  C_8 
REMARK    6  A    between atoms: C_8  and  C_10 
ROOT
HETATM    1  O   UNK N   1     -30.177  43.492  -8.204  0.00  0.00    -0.301 OA
HETATM    2  O   UNK N   1     -31.251  44.956  -6.852  0.00  0.00    -0.257 OA
HETATM    3  C   UNK N   1     -30.067  42.105  -8.326  0.00  0.00     0.222 A 
HETATM    4  C   UNK N   1     -30.888  41.606  -7.152  0.00  0.00     0.114 A 
HETATM    5  C   UNK N   1     -31.407  42.624  -6.497  0.00  0.00     0.173 A 
HETATM    6  C   UNK N   1     -30.965  43.813  -7.162  0.00  0.00     0.320 A 
ENDROOT
BRANCH   3   7
HETATM    7  C   UNK N   1     -30.645  41.626  -9.672  0.00  0.00     0.177 C 
BRANCH   7   8
HETATM    8  O   UNK N   1     -31.687  40.698  -9.476  0.00  0.00    -0.390 OA
HETATM    9  H   UNK N   1     -31.310  39.907  -9.008  0.00  0.00     0.210 HD
ENDBRANCH   7   8
BRANCH   7  10
HETATM   10  C   UNK N   1     -31.127  42.812 -10.516  0.00  0.00     0.198 C 
BRANCH  10  11
HETATM   11  O   UNK N   1     -30.025  43.539 -10.977  0.00  0.00    -0.398 OA
HETATM   12  H   UNK N   1     -30.371  44.438 -11.214  0.00  0.00     0.209 HD
ENDBRANCH  10  11
ENDBRANCH   7  10
ENDBRANCH   3   7
BRANCH   4  13
HETATM   13  O   UNK N   1     -31.061  40.309  -6.824  0.00  0.00    -0.359 OA
HETATM   14  H   UNK N   1     -31.366  39.674  -7.488  0.00  0.00     0.217 HD
ENDBRANCH   4  13
BRANCH   5  15
HETATM   15  O   UNK N   1     -32.200  42.551  -5.407  0.00  0.00    -0.353 OA
HETATM   16  H   UNK N   1     -31.813  42.563  -4.520  0.00  0.00     0.218 HD
ENDBRANCH   5  15
TORSDOF 6
ENDMDL
MODEL 4
REMARK VINA RESULT:      -4.5     21.384     22.707
REMARK  6 active torsions:
REMARK  status: ('A' for Active; 'I' for Inactive)
REMARK    1  A    between atoms: O_2  and  C_8 
REMARK    2  A    between atoms: O_3  and  C_9 
REMARK    3  A    between atoms: O_4  and  C_10 
REMARK    4  A    between atoms: O_5  and  C_11 
REMARK    5  A    between atoms: C_7  and  C_8 
REMARK    6  A    between atoms: C_8  and  C_10 
ROOT
HETATM    1  O   UNK N   1     -36.753  -2.177  -3.619  0.00  0.00    -0.301 OA
HETATM    2  O   UNK N   1     -35.442  -3.830  -4.441  0.00  0.00    -0.257 OA
HETATM    3  C   UNK N   1     -37.455  -1.083  -4.127  0.00  0.00     0.222 A 
HETATM    4  C   UNK N   1     -37.104  -1.122  -5.602  0.00  0.00     0.114 A 
HETATM    5  C   UNK N   1     -36.323  -2.152  -5.854  0.00  0.00     0.173 A 
HETATM    6  C   UNK N   1     -36.105  -2.822  -4.607  0.00  0.00     0.320 A 
ENDROOT
BRANCH   3   7
HETATM    7  C   UNK N   1     -38.970  -1.249  -3.895  0.00  0.00     0.177 C 
BRANCH   7   8
HETATM    8  O   UNK N   1     -39.235  -2.312  -3.008  0.00  0.00    -0.390 OA
HETATM    9  H   UNK N   1     -38.785  -3.125  -3.360  0.00  0.00     0.210 HD
ENDBRANCH   7   8
BRANCH   7  10
HETATM   10  C   UNK N   1     -39.594   0.054  -3.383  0.00  0.00     0.198 C 
BRANCH  10  11
HETATM   11  O   UNK N   1     -38.584   0.983  -3.109  0.00  0.00    -0.398 OA
HETATM   12  H   UNK N   1     -38.875   1.834  -3.528  0.00  0.00     0.209 HD
ENDBRANCH  10  11
ENDBRANCH   7  10
ENDBRANCH   3   7
BRANCH   4  13
HETATM   13  O   UNK N   1     -37.527  -0.232  -6.523  0.00  0.00    -0.359 OA
HETATM   14  H   UNK N   1     -38.040   0.543  -6.252  0.00  0.00     0.217 HD
ENDBRANCH   4  13
BRANCH   5  15
HETATM   15  O   UNK N   1     -35.826  -2.500  -7.060  0.00  0.00    -0.353 OA
HETATM   16  H   UNK N   1     -35.524  -3.405  -7.220  0.00  0.00     0.218 HD
ENDBRANCH   5  15
TORSDOF 6
ENDMDL
MODEL 5
REMARK VINA RESULT:      -4.4     11.853     12.793
REMARK  6 active torsions:
REMARK  status: ('A' for Active; 'I' for Inactive)
REMARK    1  A    between atoms: O_2  and  C_8 
REMARK    2  A    between atoms: O_3  and  C_9 
REMARK    3  A    between atoms: O_4  and  C_10 
REMARK    4  A    between atoms: O_5  and  C_11 
REMARK    5  A    between atoms: C_7  and  C_8 
REMARK    6  A    between atoms: C_8  and  C_10 
ROOT
HETATM    1  O   UNK N   1     -17.589  21.803  -8.813  0.00  0.00    -0.301 OA
HETATM    2  O   UNK N   1     -18.154  20.530  -7.029  0.00  0.00    -0.257 OA
HETATM    3  C   UNK N   1     -16.798  21.668  -9.954  0.00  0.00     0.222 A 
HETATM    4  C   UNK N   1     -16.195  20.287  -9.775  0.00  0.00     0.114 A 
HETATM    5  C   UNK N   1     -16.648  19.736  -8.668  0.00  0.00     0.173 A 
HETATM    6  C   UNK N   1     -17.532  20.687  -8.064  0.00  0.00     0.320 A 
ENDROOT
BRANCH   3   7
HETATM    7  C   UNK N   1     -17.658  21.753 -11.230  0.00  0.00     0.177 C 
BRANCH   7   8
HETATM    8  O   UNK N   1     -18.018  20.470 -11.688  0.00  0.00    -0.390 OA
HETATM    9  H   UNK N   1     -18.805  20.167 -11.164  0.00  0.00     0.210 HD
ENDBRANCH   7   8
BRANCH   7  10
HETATM   10  C   UNK N   1     -18.903  22.615 -10.997  0.00  0.00     0.198 C 
BRANCH  10  11
HETATM   11  O   UNK N   1     -18.518  23.907 -10.620  0.00  0.00    -0.398 OA
HETATM   12  H   UNK N   1     -19.000  24.100  -9.774  0.00  0.00     0.209 HD
ENDBRANCH  10  11
ENDBRANCH   7  10
ENDBRANCH   3   7
BRANCH   4  13
HETATM   13  O   UNK N   1     -15.320  19.708 -10.622  0.00  0.00    -0.359 OA
HETATM   14  H   UNK N   1     -15.610  18.998 -11.213  0.00  0.00     0.217 HD
ENDBRANCH   4  13
BRANCH   5  15
HETATM   15  O   UNK N   1     -16.332  18.510  -8.200  0.00  0.00    -0.353 OA
HETATM   16  H   UNK N   1     -15.789  18.415  -7.406  0.00  0.00     0.218 HD
ENDBRANCH   5  15
TORSDOF 6
ENDMDL
MODEL 6
REMARK VINA RESULT:      -4.4      1.380      2.184
REMARK  6 active torsions:
REMARK  status: ('A' for Active; 'I' for Inactive)
REMARK    1  A    between atoms: O_2  and  C_8 
REMARK    2  A    between atoms: O_3  and  C_9 
REMARK    3  A    between atoms: O_4  and  C_10 
REMARK    4  A    between atoms: O_5  and  C_11 
REMARK    5  A    between atoms: C_7  and  C_8 
REMARK    6  A    between atoms: C_8  and  C_10 
ROOT
HETATM    1  O   UNK N   1     -29.543  19.922  -7.706  0.00  0.00    -0.301 OA
HETATM    2  O   UNK N   1     -30.459  21.958  -8.080  0.00  0.00    -0.257 OA
HETATM    3  C   UNK N   1     -29.960  18.591  -7.754  0.00  0.00     0.222 A 
HETATM    4  C   UNK N   1     -31.429  18.718  -8.107  0.00  0.00     0.114 A 
HETATM    5  C   UNK N   1     -31.749  19.986  -8.264  0.00  0.00     0.173 A 
HETATM    6  C   UNK N   1     -30.560  20.746  -8.017  0.00  0.00     0.320 A 
ENDROOT
BRANCH   3   7
HETATM    7  C   UNK N   1     -29.179  17.811  -8.830  0.00  0.00     0.177 C 
BRANCH   7   8
HETATM    8  O   UNK N   1     -29.862  16.637  -9.203  0.00  0.00    -0.390 OA
HETATM    9  H   UNK N   1     -30.113  16.718 -10.160  0.00  0.00     0.210 HD
ENDBRANCH   7   8
BRANCH   7  10
HETATM   10  C   UNK N   1     -28.904  18.691 -10.054  0.00  0.00     0.198 C 
BRANCH  10  11
HETATM   11  O   UNK N   1     -27.679  19.349  -9.896  0.00  0.00    -0.398 OA
HETATM   12  H   UNK N   1     -27.080  18.984 -10.598  0.00  0.00     0.209 HD
ENDBRANCH  10  11
ENDBRANCH   7  10
ENDBRANCH   3   7
BRANCH   4  13
HETATM   13  O   UNK N   1     -32.286  17.685  -8.240  0.00  0.00    -0.359 OA
HETATM   14  H   UNK N   1     -32.563  17.177  -7.464  0.00  0.00     0.217 HD
ENDBRANCH   4  13
BRANCH   5  15
HETATM   15  O   UNK N   1     -32.967  20.467  -8.591  0.00  0.00    -0.353 OA
HETATM   16  H   UNK N   1     -33.196  21.387  -8.398  0.00  0.00     0.218 HD
ENDBRANCH   5  15
TORSDOF 6
ENDMDL
MODEL 7
REMARK VINA RESULT:      -4.3     21.306     23.048
REMARK  6 active torsions:
REMARK  status: ('A' for Active; 'I' for Inactive)
REMARK    1  A    between atoms: O_2  and  C_8 
REMARK    2  A    between atoms: O_3  and  C_9 
REMARK    3  A    between atoms: O_4  and  C_10 
REMARK    4  A    between atoms: O_5  and  C_11 
REMARK    5  A    between atoms: C_7  and  C_8 
REMARK    6  A    between atoms: C_8  and  C_10 
ROOT
HETATM    1  O   UNK N   1     -38.577  -2.939  -5.721  0.00  0.00    -0.301 OA
HETATM    2  O   UNK N   1     -40.130  -3.931  -7.035  0.00  0.00    -0.257 OA
HETATM    3  C   UNK N   1     -37.301  -2.395  -5.881  0.00  0.00     0.222 A 
HETATM    4  C   UNK N   1     -37.009  -2.665  -7.345  0.00  0.00     0.114 A 
HETATM    5  C   UNK N   1     -38.039  -3.259  -7.910  0.00  0.00     0.173 A 
HETATM    6  C   UNK N   1     -39.030  -3.428  -6.890  0.00  0.00     0.320 A 
ENDROOT
BRANCH   3   7
HETATM    7  C   UNK N   1     -37.306  -0.886  -5.568  0.00  0.00     0.177 C 
BRANCH   7   8
HETATM    8  O   UNK N   1     -37.553  -0.127  -6.729  0.00  0.00    -0.390 OA
HETATM    9  H   UNK N   1     -37.648   0.825  -6.459  0.00  0.00     0.210 HD
ENDBRANCH   7   8
BRANCH   7  10
HETATM   10  C   UNK N   1     -38.329  -0.555  -4.475  0.00  0.00     0.198 C 
BRANCH  10  11
HETATM   11  O   UNK N   1     -37.814   0.437  -3.634  0.00  0.00    -0.398 OA
HETATM   12  H   UNK N   1     -37.374  -0.042  -2.884  0.00  0.00     0.209 HD
ENDBRANCH  10  11
ENDBRANCH   7  10
ENDBRANCH   3   7
BRANCH   4  13
HETATM   13  O   UNK N   1     -35.862  -2.344  -7.977  0.00  0.00    -0.359 OA
HETATM   14  H   UNK N   1     -35.884  -1.984  -8.876  0.00  0.00     0.217 HD
ENDBRANCH   4  13
BRANCH   5  15
HETATM   15  O   UNK N   1     -38.132  -3.637  -9.202  0.00  0.00    -0.353 OA
HETATM   16  H   UNK N   1     -37.361  -3.993  -9.664  0.00  0.00     0.218 HD
ENDBRANCH   5  15
TORSDOF 6
ENDMDL
MODEL 8
REMARK VINA RESULT:      -4.3     12.261     13.363
REMARK  6 active torsions:
REMARK  status: ('A' for Active; 'I' for Inactive)
REMARK    1  A    between atoms: O_2  and  C_8 
REMARK    2  A    between atoms: O_3  and  C_9 
REMARK    3  A    between atoms: O_4  and  C_10 
REMARK    4  A    between atoms: O_5  and  C_11 
REMARK    5  A    between atoms: C_7  and  C_8 
REMARK    6  A    between atoms: C_8  and  C_10 
ROOT
HETATM    1  O   UNK N   1     -17.858  21.107  -8.029  0.00  0.00    -0.301 OA
HETATM    2  O   UNK N   1     -17.130  22.341  -9.781  0.00  0.00    -0.257 OA
HETATM    3  C   UNK N   1     -17.588  19.851  -7.482  0.00  0.00     0.222 A 
HETATM    4  C   UNK N   1     -16.572  19.280  -8.454  0.00  0.00     0.114 A 
HETATM    5  C   UNK N   1     -16.306  20.158  -9.398  0.00  0.00     0.173 A 
HETATM    6  C   UNK N   1     -17.111  21.312  -9.129  0.00  0.00     0.320 A 
ENDROOT
BRANCH   3   7
HETATM    7  C   UNK N   1     -17.007  19.986  -6.061  0.00  0.00     0.177 C 
BRANCH   7   8
HETATM    8  O   UNK N   1     -17.506  21.134  -5.414  0.00  0.00    -0.390 OA
HETATM    9  H   UNK N   1     -16.834  21.858  -5.510  0.00  0.00     0.210 HD
ENDBRANCH   7   8
BRANCH   7  10
HETATM   10  C   UNK N   1     -17.288  18.729  -5.231  0.00  0.00     0.198 C 
BRANCH  10  11
HETATM   11  O   UNK N   1     -18.139  17.876  -5.942  0.00  0.00    -0.398 OA
HETATM   12  H   UNK N   1     -17.995  18.084  -6.901  0.00  0.00     0.209 HD
ENDBRANCH  10  11
ENDBRANCH   7  10
ENDBRANCH   3   7
BRANCH   4  13
HETATM   13  O   UNK N   1     -16.022  18.052  -8.365  0.00  0.00    -0.359 OA
HETATM   14  H   UNK N   1     -15.124  17.895  -8.692  0.00  0.00     0.217 HD
ENDBRANCH   4  13
BRANCH   5  15
HETATM   15  O   UNK N   1     -15.442  19.992 -10.421  0.00  0.00    -0.353 OA
HETATM   16  H   UNK N   1     -14.940  19.170 -10.508  0.00  0.00     0.218 HD
ENDBRANCH   5  15
TORSDOF 6
ENDMDL
MODEL 9
REMARK VINA RESULT:      -4.3     11.982     13.041
REMARK  6 active torsions:
REMARK  status: ('A' for Active; 'I' for Inactive)
REMARK    1  A    between atoms: O_2  and  C_8 
REMARK    2  A    between atoms: O_3  and  C_9 
REMARK    3  A    between atoms: O_4  and  C_10 
REMARK    4  A    between atoms: O_5  and  C_11 
REMARK    5  A    between atoms: C_7  and  C_8 
REMARK    6  A    between atoms: C_8  and  C_10 
ROOT
HETATM    1  O   UNK N   1     -24.071  13.491  -0.289  0.00  0.00    -0.301 OA
HETATM    2  O   UNK N   1     -24.537  13.451  -2.504  0.00  0.00    -0.257 OA
HETATM    3  C   UNK N   1     -24.459  12.783   0.849  0.00  0.00     0.222 A 
HETATM    4  C   UNK N   1     -25.494  11.820   0.300  0.00  0.00     0.114 A 
HETATM    5  C   UNK N   1     -25.615  11.979  -1.001  0.00  0.00     0.173 A 
HETATM    6  C   UNK N   1     -24.715  13.028  -1.376  0.00  0.00     0.320 A 
ENDROOT
BRANCH   3   7
HETATM    7  C   UNK N   1     -23.259  12.040   1.468  0.00  0.00     0.177 C 
BRANCH   7   8
HETATM    8  O   UNK N   1     -22.041  12.509   0.935  0.00  0.00    -0.390 OA
HETATM    9  H   UNK N   1     -21.475  12.820   1.690  0.00  0.00     0.210 HD
ENDBRANCH   7   8
BRANCH   7  10
HETATM   10  C   UNK N   1     -23.265  12.163   2.996  0.00  0.00     0.198 C 
BRANCH  10  11
HETATM   11  O   UNK N   1     -24.346  11.446   3.521  0.00  0.00    -0.398 OA
HETATM   12  H   UNK N   1     -24.878  12.099   4.045  0.00  0.00     0.209 HD
ENDBRANCH  10  11
ENDBRANCH   7  10
ENDBRANCH   3   7
BRANCH   4  13
HETATM   13  O   UNK N   1     -26.191  10.930   1.036  0.00  0.00    -0.359 OA
HETATM   14  H   UNK N   1     -25.959  10.775   1.963  0.00  0.00     0.217 HD
ENDBRANCH   4  13
BRANCH   5  15
HETATM   15  O   UNK N   1     -26.436  11.284  -1.817  0.00  0.00    -0.353 OA
HETATM   16  H   UNK N   1     -27.328  11.608  -2.004  0.00  0.00     0.218 HD
ENDBRANCH   5  15
TORSDOF 6
ENDMDL
