MODEL 1
REMARK VINA RESULT:      -7.4      0.000      0.000
REMARK  12 active torsions:
REMARK  status: ('A' for Active; 'I' for Inactive)
REMARK    1  A    between atoms: O_2  and  C_12 
REMARK    2  A    between atoms: O_2  and  C_24 
REMARK    3  A    between atoms: O_3  and  C_18 
REMARK    4  A    between atoms: O_4  and  C_23 
REMARK    5  A    between atoms: O_5  and  C_25 
REMARK    6  A    between atoms: O_6  and  C_26 
REMARK    7  A    between atoms: O_8  and  C_27 
REMARK    8  A    between atoms: O_9  and  C_31 
REMARK    9  A    between atoms: O_10  and  C_32 
REMARK   10  A    between atoms: O_11  and  C_33 
REMARK   11  A    between atoms: C_13  and  C_16 
REMARK   12  A    between atoms: C_24  and  C_28 
ROOT
HETATM    1  O   UNK N   1     -17.804  19.813  -6.653  0.00  0.00    -0.338 OA
HETATM    2  C   UNK N   1     -16.020  18.224  -6.604  0.00  0.00     0.170 C 
HETATM    3  C   UNK N   1     -17.499  18.507  -6.301  0.00  0.00     0.192 C 
HETATM    4  C   UNK N   1     -15.791  18.420  -8.122  0.00  0.00     0.080 C 
HETATM    5  C   UNK N   1     -16.402  19.723  -8.605  0.00  0.00     0.011 A 
HETATM    6  C   UNK N   1     -17.387  20.365  -7.821  0.00  0.00     0.081 A 
HETATM    7  C   UNK N   1     -16.015  20.290  -9.833  0.00  0.00     0.077 A 
HETATM    8  C   UNK N   1     -17.949  21.571  -8.249  0.00  0.00     0.074 A 
HETATM    9  C   UNK N   1     -16.594  21.497 -10.256  0.00  0.00     0.073 A 
HETATM   10  C   UNK N   1     -17.556  22.137  -9.468  0.00  0.00     0.071 A 
ENDROOT
BRANCH   2  11
HETATM   11  O   UNK N   1     -15.249  19.140  -5.919  0.00  0.00    -0.309 OA
BRANCH  11  12
HETATM   12  C   UNK N   1     -14.178  18.829  -5.145  0.00  0.00     0.294 C 
HETATM   13  O   UNK N   1     -13.053  19.183  -5.469  0.00  0.00    -0.259 OA
BRANCH  12  14
HETATM   14  C   UNK N   1     -14.398  18.055  -3.908  0.00  0.00     0.045 A 
HETATM   15  C   UNK N   1     -14.238  16.659  -3.881  0.00  0.00     0.057 A 
HETATM   16  C   UNK N   1     -14.462  15.946  -2.693  0.00  0.00     0.102 A 
HETATM   17  C   UNK N   1     -14.824  16.634  -1.519  0.00  0.00     0.132 A 
HETATM   18  C   UNK N   1     -14.963  18.029  -1.541  0.00  0.00     0.102 A 
HETATM   19  C   UNK N   1     -14.761  18.730  -2.733  0.00  0.00     0.057 A 
BRANCH  16  20
HETATM   20  O   UNK N   1     -14.331  14.603  -2.674  0.00  0.00    -0.358 OA
HETATM   21  H   UNK N   1     -15.045  14.016  -2.962  0.00  0.00     0.218 HD
ENDBRANCH  16  20
BRANCH  17  22
HETATM   22  O   UNK N   1     -15.042  15.970  -0.362  0.00  0.00    -0.356 OA
HETATM   23  H   UNK N   1     -15.831  15.430  -0.216  0.00  0.00     0.218 HD
ENDBRANCH  17  22
BRANCH  18  24
HETATM   24  O   UNK N   1     -15.290  18.690  -0.412  0.00  0.00    -0.358 OA
HETATM   25  H   UNK N   1     -14.713  19.372  -0.037  0.00  0.00     0.218 HD
ENDBRANCH  18  24
ENDBRANCH  12  14
ENDBRANCH  11  12
ENDBRANCH   2  11
BRANCH   3  26
HETATM   26  C   UNK N   1     -17.842  18.255  -4.847  0.00  0.00    -0.021 A 
HETATM   27  C   UNK N   1     -17.798  16.946  -4.344  0.00  0.00     0.049 A 
HETATM   28  C   UNK N   1     -18.117  16.685  -3.005  0.00  0.00     0.102 A 
HETATM   29  C   UNK N   1     -18.490  17.734  -2.154  0.00  0.00     0.132 A 
HETATM   30  C   UNK N   1     -18.537  19.052  -2.647  0.00  0.00     0.102 A 
HETATM   31  C   UNK N   1     -18.208  19.310  -3.988  0.00  0.00     0.049 A 
BRANCH  28  32
HETATM   32  O   UNK N   1     -18.068  15.423  -2.529  0.00  0.00    -0.358 OA
HETATM   33  H   UNK N   1     -17.619  15.210  -1.698  0.00  0.00     0.218 HD
ENDBRANCH  28  32
BRANCH  29  34
HETATM   34  O   UNK N   1     -18.803  17.462  -0.868  0.00  0.00    -0.356 OA
HETATM   35  H   UNK N   1     -18.245  17.739  -0.128  0.00  0.00     0.218 HD
ENDBRANCH  29  34
BRANCH  30  36
HETATM   36  O   UNK N   1     -18.899  20.064  -1.830  0.00  0.00    -0.358 OA
HETATM   37  H   UNK N   1     -18.371  20.871  -1.748  0.00  0.00     0.218 HD
ENDBRANCH  30  36
ENDBRANCH   3  26
BRANCH   7  38
HETATM   38  O   UNK N   1     -15.082  19.681 -10.595  0.00  0.00    -0.360 OA
HETATM   39  H   UNK N   1     -14.137  19.761 -10.404  0.00  0.00     0.217 HD
ENDBRANCH   7  38
BRANCH  10  40
HETATM   40  O   UNK N   1     -18.104  23.295  -9.894  0.00  0.00    -0.361 OA
HETATM   41  H   UNK N   1     -18.205  24.057  -9.307  0.00  0.00     0.217 HD
ENDBRANCH  10  40
TORSDOF 12
ENDMDL
MODEL 2
REMARK VINA RESULT:      -7.4      0.025      1.447
REMARK  12 active torsions:
REMARK  status: ('A' for Active; 'I' for Inactive)
REMARK    1  A    between atoms: O_2  and  C_12 
REMARK    2  A    between atoms: O_2  and  C_24 
REMARK    3  A    between atoms: O_3  and  C_18 
REMARK    4  A    between atoms: O_4  and  C_23 
REMARK    5  A    between atoms: O_5  and  C_25 
REMARK    6  A    between atoms: O_6  and  C_26 
REMARK    7  A    between atoms: O_8  and  C_27 
REMARK    8  A    between atoms: O_9  and  C_31 
REMARK    9  A    between atoms: O_10  and  C_32 
REMARK   10  A    between atoms: O_11  and  C_33 
REMARK   11  A    between atoms: C_13  and  C_16 
REMARK   12  A    between atoms: C_24  and  C_28 
ROOT
HETATM    1  O   UNK N   1     -17.812  19.816  -6.658  0.00  0.00    -0.338 OA
HETATM    2  C   UNK N   1     -16.030  18.225  -6.614  0.00  0.00     0.170 C 
HETATM    3  C   UNK N   1     -17.508  18.509  -6.309  0.00  0.00     0.192 C 
HETATM    4  C   UNK N   1     -15.802  18.424  -8.131  0.00  0.00     0.080 C 
HETATM    5  C   UNK N   1     -16.412  19.729  -8.611  0.00  0.00     0.011 A 
HETATM    6  C   UNK N   1     -17.396  20.371  -7.824  0.00  0.00     0.081 A 
HETATM    7  C   UNK N   1     -16.026  20.298  -9.838  0.00  0.00     0.077 A 
HETATM    8  C   UNK N   1     -17.956  21.578  -8.250  0.00  0.00     0.074 A 
HETATM    9  C   UNK N   1     -16.603  21.507 -10.258  0.00  0.00     0.073 A 
HETATM   10  C   UNK N   1     -17.564  22.147  -9.467  0.00  0.00     0.071 A 
ENDROOT
BRANCH   2  11
HETATM   11  O   UNK N   1     -15.257  19.139  -5.928  0.00  0.00    -0.309 OA
BRANCH  11  12
HETATM   12  C   UNK N   1     -14.182  18.825  -5.160  0.00  0.00     0.294 C 
HETATM   13  O   UNK N   1     -13.054  19.142  -5.511  0.00  0.00    -0.259 OA
BRANCH  12  14
HETATM   14  C   UNK N   1     -14.402  18.093  -3.898  0.00  0.00     0.045 A 
HETATM   15  C   UNK N   1     -14.771  18.763  -2.719  0.00  0.00     0.057 A 
HETATM   16  C   UNK N   1     -14.967  18.044  -1.530  0.00  0.00     0.102 A 
HETATM   17  C   UNK N   1     -14.817  16.644  -1.523  0.00  0.00     0.132 A 
HETATM   18  C   UNK N   1     -14.469  15.973  -2.704  0.00  0.00     0.102 A 
HETATM   19  C   UNK N   1     -14.254  16.699  -3.880  0.00  0.00     0.057 A 
BRANCH  16  20
HETATM   20  O   UNK N   1     -15.299  18.692  -0.393  0.00  0.00    -0.358 OA
HETATM   21  H   UNK N   1     -15.028  18.367   0.478  0.00  0.00     0.218 HD
ENDBRANCH  16  20
BRANCH  17  22
HETATM   22  O   UNK N   1     -15.003  15.929  -0.392  0.00  0.00    -0.356 OA
HETATM   23  H   UNK N   1     -15.819  15.438  -0.220  0.00  0.00     0.218 HD
ENDBRANCH  17  22
BRANCH  18  24
HETATM   24  O   UNK N   1     -14.345  14.630  -2.704  0.00  0.00    -0.358 OA
HETATM   25  H   UNK N   1     -13.612  14.188  -3.156  0.00  0.00     0.218 HD
ENDBRANCH  18  24
ENDBRANCH  12  14
ENDBRANCH  11  12
ENDBRANCH   2  11
BRANCH   3  26
HETATM   26  C   UNK N   1     -17.850  18.255  -4.855  0.00  0.00    -0.021 A 
HETATM   27  C   UNK N   1     -17.805  16.945  -4.355  0.00  0.00     0.049 A 
HETATM   28  C   UNK N   1     -18.123  16.681  -3.015  0.00  0.00     0.102 A 
HETATM   29  C   UNK N   1     -18.496  17.728  -2.163  0.00  0.00     0.132 A 
HETATM   30  C   UNK N   1     -18.544  19.047  -2.653  0.00  0.00     0.102 A 
HETATM   31  C   UNK N   1     -18.216  19.307  -3.994  0.00  0.00     0.049 A 
BRANCH  28  32
HETATM   32  O   UNK N   1     -18.073  15.418  -2.542  0.00  0.00    -0.358 OA
HETATM   33  H   UNK N   1     -18.391  14.666  -3.062  0.00  0.00     0.218 HD
ENDBRANCH  28  32
BRANCH  29  34
HETATM   34  O   UNK N   1     -18.808  17.453  -0.877  0.00  0.00    -0.356 OA
HETATM   35  H   UNK N   1     -18.554  18.034  -0.146  0.00  0.00     0.218 HD
ENDBRANCH  29  34
BRANCH  30  36
HETATM   36  O   UNK N   1     -18.906  20.057  -1.834  0.00  0.00    -0.358 OA
HETATM   37  H   UNK N   1     -19.661  20.631  -2.031  0.00  0.00     0.218 HD
ENDBRANCH  30  36
ENDBRANCH   3  26
BRANCH   7  38
HETATM   38  O   UNK N   1     -15.094  19.689 -10.602  0.00  0.00    -0.360 OA
HETATM   39  H   UNK N   1     -15.291  19.384 -11.499  0.00  0.00     0.217 HD
ENDBRANCH   7  38
BRANCH  10  40
HETATM   40  O   UNK N   1     -18.111  23.306  -9.891  0.00  0.00    -0.361 OA
HETATM   41  H   UNK N   1     -18.492  23.945  -9.272  0.00  0.00     0.217 HD
ENDBRANCH  10  40
TORSDOF 12
ENDMDL
MODEL 3
REMARK VINA RESULT:      -7.2      5.062      8.993
REMARK  12 active torsions:
REMARK  status: ('A' for Active; 'I' for Inactive)
REMARK    1  A    between atoms: O_2  and  C_12 
REMARK    2  A    between atoms: O_2  and  C_24 
REMARK    3  A    between atoms: O_3  and  C_18 
REMARK    4  A    between atoms: O_4  and  C_23 
REMARK    5  A    between atoms: O_5  and  C_25 
REMARK    6  A    between atoms: O_6  and  C_26 
REMARK    7  A    between atoms: O_8  and  C_27 
REMARK    8  A    between atoms: O_9  and  C_31 
REMARK    9  A    between atoms: O_10  and  C_32 
REMARK   10  A    between atoms: O_11  and  C_33 
REMARK   11  A    between atoms: C_13  and  C_16 
REMARK   12  A    between atoms: C_24  and  C_28 
ROOT
HETATM    1  O   UNK N   1     -18.312  22.841 -12.514  0.00  0.00    -0.338 OA
HETATM    2  C   UNK N   1     -19.677  23.898 -10.862  0.00  0.00     0.170 C 
HETATM    3  C   UNK N   1     -18.284  23.367 -11.231  0.00  0.00     0.192 C 
HETATM    4  C   UNK N   1     -20.056  25.007 -11.871  0.00  0.00     0.080 C 
HETATM    5  C   UNK N   1     -19.796  24.563 -13.299  0.00  0.00     0.011 A 
HETATM    6  C   UNK N   1     -18.928  23.473 -13.544  0.00  0.00     0.081 A 
HETATM    7  C   UNK N   1     -20.392  25.231 -14.384  0.00  0.00     0.077 A 
HETATM    8  C   UNK N   1     -18.690  23.047 -14.853  0.00  0.00     0.074 A 
HETATM    9  C   UNK N   1     -20.136  24.798 -15.695  0.00  0.00     0.073 A 
HETATM   10  C   UNK N   1     -19.291  23.710 -15.930  0.00  0.00     0.071 A 
ENDROOT
BRANCH   2  11
HETATM   11  O   UNK N   1     -20.585  22.865 -10.980  0.00  0.00    -0.309 OA
BRANCH  11  12
HETATM   12  C   UNK N   1     -21.827  22.856 -10.431  0.00  0.00     0.294 C 
HETATM   13  O   UNK N   1     -22.800  22.540 -11.100  0.00  0.00    -0.259 OA
BRANCH  12  14
HETATM   14  C   UNK N   1     -21.977  23.237  -9.013  0.00  0.00     0.045 A 
HETATM   15  C   UNK N   1     -22.542  24.470  -8.644  0.00  0.00     0.057 A 
HETATM   16  C   UNK N   1     -22.667  24.811  -7.288  0.00  0.00     0.102 A 
HETATM   17  C   UNK N   1     -22.247  23.905  -6.294  0.00  0.00     0.132 A 
HETATM   18  C   UNK N   1     -21.703  22.667  -6.663  0.00  0.00     0.102 A 
HETATM   19  C   UNK N   1     -21.561  22.343  -8.016  0.00  0.00     0.057 A 
BRANCH  16  20
HETATM   20  O   UNK N   1     -23.188  26.005  -6.935  0.00  0.00    -0.358 OA
HETATM   21  H   UNK N   1     -23.465  26.193  -6.026  0.00  0.00     0.218 HD
ENDBRANCH  16  20
BRANCH  17  22
HETATM   22  O   UNK N   1     -22.360  24.209  -4.983  0.00  0.00    -0.356 OA
HETATM   23  H   UNK N   1     -23.109  24.710  -4.631  0.00  0.00     0.218 HD
ENDBRANCH  17  22
BRANCH  18  24
HETATM   24  O   UNK N   1     -21.320  21.791  -5.712  0.00  0.00    -0.358 OA
HETATM   25  H   UNK N   1     -21.897  21.067  -5.426  0.00  0.00     0.218 HD
ENDBRANCH  18  24
ENDBRANCH  12  14
ENDBRANCH  11  12
ENDBRANCH   2  11
BRANCH   3  26
HETATM   26  C   UNK N   1     -17.786  22.333 -10.243  0.00  0.00    -0.021 A 
HETATM   27  C   UNK N   1     -18.320  22.305  -8.946  0.00  0.00     0.049 A 
HETATM   28  C   UNK N   1     -17.872  21.362  -8.010  0.00  0.00     0.102 A 
HETATM   29  C   UNK N   1     -16.879  20.439  -8.363  0.00  0.00     0.132 A 
HETATM   30  C   UNK N   1     -16.337  20.456  -9.663  0.00  0.00     0.102 A 
HETATM   31  C   UNK N   1     -16.795  21.398 -10.599  0.00  0.00     0.049 A 
BRANCH  28  32
HETATM   32  O   UNK N   1     -18.394  21.340  -6.766  0.00  0.00    -0.358 OA
HETATM   33  H   UNK N   1     -19.333  21.511  -6.604  0.00  0.00     0.218 HD
ENDBRANCH  28  32
BRANCH  29  34
HETATM   34  O   UNK N   1     -16.454  19.543  -7.445  0.00  0.00    -0.356 OA
HETATM   35  H   UNK N   1     -15.543  19.525  -7.121  0.00  0.00     0.218 HD
ENDBRANCH  29  34
BRANCH  30  36
HETATM   36  O   UNK N   1     -15.378  19.570 -10.004  0.00  0.00    -0.358 OA
HETATM   37  H   UNK N   1     -15.345  19.163 -10.882  0.00  0.00     0.218 HD
ENDBRANCH  30  36
ENDBRANCH   3  26
BRANCH   7  38
HETATM   38  O   UNK N   1     -21.215  26.278 -14.163  0.00  0.00    -0.360 OA
HETATM   39  H   UNK N   1     -21.919  26.242 -13.500  0.00  0.00     0.217 HD
ENDBRANCH   7  38
BRANCH  10  40
HETATM   40  O   UNK N   1     -19.054  23.312 -17.198  0.00  0.00    -0.361 OA
HETATM   41  H   UNK N   1     -19.749  23.318 -17.872  0.00  0.00     0.217 HD
ENDBRANCH  10  40
TORSDOF 12
ENDMDL
MODEL 4
REMARK VINA RESULT:      -7.2      6.682     11.465
REMARK  12 active torsions:
REMARK  status: ('A' for Active; 'I' for Inactive)
REMARK    1  A    between atoms: O_2  and  C_12 
REMARK    2  A    between atoms: O_2  and  C_24 
REMARK    3  A    between atoms: O_3  and  C_18 
REMARK    4  A    between atoms: O_4  and  C_23 
REMARK    5  A    between atoms: O_5  and  C_25 
REMARK    6  A    between atoms: O_6  and  C_26 
REMARK    7  A    between atoms: O_8  and  C_27 
REMARK    8  A    between atoms: O_9  and  C_31 
REMARK    9  A    between atoms: O_10  and  C_32 
REMARK   10  A    between atoms: O_11  and  C_33 
REMARK   11  A    between atoms: C_13  and  C_16 
REMARK   12  A    between atoms: C_24  and  C_28 
ROOT
HETATM    1  O   UNK N   1     -19.668  23.811 -13.720  0.00  0.00    -0.338 OA
HETATM    2  C   UNK N   1     -20.788  24.384 -11.688  0.00  0.00     0.170 C 
HETATM    3  C   UNK N   1     -19.453  24.056 -12.372  0.00  0.00     0.192 C 
HETATM    4  C   UNK N   1     -21.378  25.648 -12.359  0.00  0.00     0.080 C 
HETATM    5  C   UNK N   1     -21.337  25.536 -13.872  0.00  0.00     0.011 A 
HETATM    6  C   UNK N   1     -20.474  24.595 -14.480  0.00  0.00     0.081 A 
HETATM    7  C   UNK N   1     -22.133  26.369 -14.680  0.00  0.00     0.077 A 
HETATM    8  C   UNK N   1     -20.436  24.474 -15.871  0.00  0.00     0.074 A 
HETATM    9  C   UNK N   1     -22.078  26.243 -16.077  0.00  0.00     0.073 A 
HETATM   10  C   UNK N   1     -21.235  25.299 -16.672  0.00  0.00     0.071 A 
ENDROOT
BRANCH   2  11
HETATM   11  O   UNK N   1     -21.656  23.331 -11.893  0.00  0.00    -0.309 OA
BRANCH  11  12
HETATM   12  C   UNK N   1     -22.522  22.847 -10.965  0.00  0.00     0.294 C 
HETATM   13  O   UNK N   1     -22.199  22.780  -9.788  0.00  0.00    -0.259 OA
BRANCH  12  14
HETATM   14  C   UNK N   1     -23.859  22.403 -11.408  0.00  0.00     0.045 A 
HETATM   15  C   UNK N   1     -24.752  23.288 -12.034  0.00  0.00     0.057 A 
HETATM   16  C   UNK N   1     -26.020  22.842 -12.438  0.00  0.00     0.102 A 
HETATM   17  C   UNK N   1     -26.389  21.498 -12.236  0.00  0.00     0.132 A 
HETATM   18  C   UNK N   1     -25.490  20.611 -11.630  0.00  0.00     0.102 A 
HETATM   19  C   UNK N   1     -24.237  21.067 -11.210  0.00  0.00     0.057 A 
BRANCH  16  20
HETATM   20  O   UNK N   1     -26.886  23.699 -13.019  0.00  0.00    -0.358 OA
HETATM   21  H   UNK N   1     -27.825  23.486 -13.122  0.00  0.00     0.218 HD
ENDBRANCH  16  20
BRANCH  17  22
HETATM   22  O   UNK N   1     -27.603  21.044 -12.620  0.00  0.00    -0.356 OA
HETATM   23  H   UNK N   1     -28.288  20.800 -11.982  0.00  0.00     0.218 HD
ENDBRANCH  17  22
BRANCH  18  24
HETATM   24  O   UNK N   1     -25.834  19.319 -11.454  0.00  0.00    -0.358 OA
HETATM   25  H   UNK N   1     -26.761  19.044 -11.392  0.00  0.00     0.218 HD
ENDBRANCH  18  24
ENDBRANCH  12  14
ENDBRANCH  11  12
ENDBRANCH   2  11
BRANCH   3  26
HETATM   26  C   UNK N   1     -18.754  22.879 -11.723  0.00  0.00    -0.021 A 
HETATM   27  C   UNK N   1     -18.453  22.924 -10.354  0.00  0.00     0.049 A 
HETATM   28  C   UNK N   1     -17.800  21.852  -9.730  0.00  0.00     0.102 A 
HETATM   29  C   UNK N   1     -17.436  20.723 -10.475  0.00  0.00     0.132 A 
HETATM   30  C   UNK N   1     -17.734  20.665 -11.850  0.00  0.00     0.102 A 
HETATM   31  C   UNK N   1     -18.395  21.739 -12.469  0.00  0.00     0.049 A 
BRANCH  28  32
HETATM   32  O   UNK N   1     -17.519  21.902  -8.411  0.00  0.00    -0.358 OA
HETATM   33  H   UNK N   1     -17.243  22.724  -7.981  0.00  0.00     0.218 HD
ENDBRANCH  28  32
BRANCH  29  34
HETATM   34  O   UNK N   1     -16.800  19.702  -9.859  0.00  0.00    -0.356 OA
HETATM   35  H   UNK N   1     -16.250  19.068 -10.339  0.00  0.00     0.218 HD
ENDBRANCH  29  34
BRANCH  30  36
HETATM   36  O   UNK N   1     -17.381  19.579 -12.571  0.00  0.00    -0.358 OA
HETATM   37  H   UNK N   1     -17.758  19.398 -13.443  0.00  0.00     0.218 HD
ENDBRANCH  30  36
ENDBRANCH   3  26
BRANCH   7  38
HETATM   38  O   UNK N   1     -22.954  27.277 -14.111  0.00  0.00    -0.360 OA
HETATM   39  H   UNK N   1     -23.028  28.179 -14.451  0.00  0.00     0.217 HD
ENDBRANCH   7  38
BRANCH  10  40
HETATM   40  O   UNK N   1     -21.193  25.197 -18.017  0.00  0.00    -0.361 OA
HETATM   41  H   UNK N   1     -20.387  25.389 -18.517  0.00  0.00     0.217 HD
ENDBRANCH  10  40
TORSDOF 12
ENDMDL
MODEL 5
REMARK VINA RESULT:      -7.2      5.082      8.848
REMARK  12 active torsions:
REMARK  status: ('A' for Active; 'I' for Inactive)
REMARK    1  A    between atoms: O_2  and  C_12 
REMARK    2  A    between atoms: O_2  and  C_24 
REMARK    3  A    between atoms: O_3  and  C_18 
REMARK    4  A    between atoms: O_4  and  C_23 
REMARK    5  A    between atoms: O_5  and  C_25 
REMARK    6  A    between atoms: O_6  and  C_26 
REMARK    7  A    between atoms: O_8  and  C_27 
REMARK    8  A    between atoms: O_9  and  C_31 
REMARK    9  A    between atoms: O_10  and  C_32 
REMARK   10  A    between atoms: O_11  and  C_33 
REMARK   11  A    between atoms: C_13  and  C_16 
REMARK   12  A    between atoms: C_24  and  C_28 
ROOT
HETATM    1  O   UNK N   1     -18.325  22.860 -12.504  0.00  0.00    -0.338 OA
HETATM    2  C   UNK N   1     -19.706  23.921 -10.867  0.00  0.00     0.170 C 
HETATM    3  C   UNK N   1     -18.308  23.394 -11.224  0.00  0.00     0.192 C 
HETATM    4  C   UNK N   1     -20.082  25.023 -11.886  0.00  0.00     0.080 C 
HETATM    5  C   UNK N   1     -19.810  24.570 -13.309  0.00  0.00     0.011 A 
HETATM    6  C   UNK N   1     -18.936  23.483 -13.542  0.00  0.00     0.081 A 
HETATM    7  C   UNK N   1     -20.401  25.230 -14.403  0.00  0.00     0.077 A 
HETATM    8  C   UNK N   1     -18.688  23.050 -14.847  0.00  0.00     0.074 A 
HETATM    9  C   UNK N   1     -20.134  24.790 -15.709  0.00  0.00     0.073 A 
HETATM   10  C   UNK N   1     -19.283  23.704 -15.932  0.00  0.00     0.071 A 
ENDROOT
BRANCH   2  11
HETATM   11  O   UNK N   1     -20.608  22.884 -10.986  0.00  0.00    -0.309 OA
BRANCH  11  12
HETATM   12  C   UNK N   1     -21.843  22.862 -10.422  0.00  0.00     0.294 C 
HETATM   13  O   UNK N   1     -22.827  22.572 -11.089  0.00  0.00    -0.259 OA
BRANCH  12  14
HETATM   14  C   UNK N   1     -21.975  23.196  -8.990  0.00  0.00     0.045 A 
HETATM   15  C   UNK N   1     -21.537  22.311  -7.990  0.00  0.00     0.057 A 
HETATM   16  C   UNK N   1     -21.681  22.650  -6.635  0.00  0.00     0.102 A 
HETATM   17  C   UNK N   1     -22.243  23.891  -6.278  0.00  0.00     0.132 A 
HETATM   18  C   UNK N   1     -22.660  24.782  -7.276  0.00  0.00     0.102 A 
HETATM   19  C   UNK N   1     -22.534  24.428  -8.623  0.00  0.00     0.057 A 
BRANCH  16  20
HETATM   20  O   UNK N   1     -21.282  21.788  -5.676  0.00  0.00    -0.358 OA
HETATM   21  H   UNK N   1     -20.662  22.050  -4.980  0.00  0.00     0.218 HD
ENDBRANCH  16  20
BRANCH  17  22
HETATM   22  O   UNK N   1     -22.388  24.241  -4.981  0.00  0.00    -0.356 OA
HETATM   23  H   UNK N   1     -22.703  23.619  -4.310  0.00  0.00     0.218 HD
ENDBRANCH  17  22
BRANCH  18  24
HETATM   24  O   UNK N   1     -23.179  25.979  -6.935  0.00  0.00    -0.358 OA
HETATM   25  H   UNK N   1     -24.115  26.081  -6.709  0.00  0.00     0.218 HD
ENDBRANCH  18  24
ENDBRANCH  12  14
ENDBRANCH  11  12
ENDBRANCH   2  11
BRANCH   3  26
HETATM   26  C   UNK N   1     -17.813  22.367 -10.226  0.00  0.00    -0.021 A 
HETATM   27  C   UNK N   1     -16.820  21.454 -10.611  0.00  0.00     0.049 A 
HETATM   28  C   UNK N   1     -16.350  20.489  -9.710  0.00  0.00     0.102 A 
HETATM   29  C   UNK N   1     -16.873  20.426  -8.412  0.00  0.00     0.132 A 
HETATM   30  C   UNK N   1     -17.869  21.338  -8.013  0.00  0.00     0.102 A 
HETATM   31  C   UNK N   1     -18.332  22.308  -8.918  0.00  0.00     0.049 A 
BRANCH  28  32
HETATM   32  O   UNK N   1     -15.391  19.617 -10.087  0.00  0.00    -0.358 OA
HETATM   33  H   UNK N   1     -15.378  18.704  -9.765  0.00  0.00     0.218 HD
ENDBRANCH  28  32
BRANCH  29  34
HETATM   34  O   UNK N   1     -16.414  19.483  -7.559  0.00  0.00    -0.356 OA
HETATM   35  H   UNK N   1     -16.158  18.598  -7.853  0.00  0.00     0.218 HD
ENDBRANCH  29  34
BRANCH  30  36
HETATM   36  O   UNK N   1     -18.378  21.277  -6.765  0.00  0.00    -0.358 OA
HETATM   37  H   UNK N   1     -19.327  21.359  -6.593  0.00  0.00     0.218 HD
ENDBRANCH  30  36
ENDBRANCH   3  26
BRANCH   7  38
HETATM   38  O   UNK N   1     -21.229  26.276 -14.194  0.00  0.00    -0.360 OA
HETATM   39  H   UNK N   1     -22.080  26.350 -14.648  0.00  0.00     0.217 HD
ENDBRANCH   7  38
BRANCH  10  40
HETATM   40  O   UNK N   1     -19.036  23.299 -17.196  0.00  0.00    -0.361 OA
HETATM   41  H   UNK N   1     -18.134  23.146 -17.514  0.00  0.00     0.217 HD
ENDBRANCH  10  40
TORSDOF 12
ENDMDL
MODEL 6
REMARK VINA RESULT:      -7.2      5.578     10.576
REMARK  12 active torsions:
REMARK  status: ('A' for Active; 'I' for Inactive)
REMARK    1  A    between atoms: O_2  and  C_12 
REMARK    2  A    between atoms: O_2  and  C_24 
REMARK    3  A    between atoms: O_3  and  C_18 
REMARK    4  A    between atoms: O_4  and  C_23 
REMARK    5  A    between atoms: O_5  and  C_25 
REMARK    6  A    between atoms: O_6  and  C_26 
REMARK    7  A    between atoms: O_8  and  C_27 
REMARK    8  A    between atoms: O_9  and  C_31 
REMARK    9  A    between atoms: O_10  and  C_32 
REMARK   10  A    between atoms: O_11  and  C_33 
REMARK   11  A    between atoms: C_13  and  C_16 
REMARK   12  A    between atoms: C_24  and  C_28 
ROOT
HETATM    1  O   UNK N   1     -18.646  23.142 -12.675  0.00  0.00    -0.338 OA
HETATM    2  C   UNK N   1     -20.070  24.137 -11.034  0.00  0.00     0.170 C 
HETATM    3  C   UNK N   1     -18.654  23.662 -11.390  0.00  0.00     0.192 C 
HETATM    4  C   UNK N   1     -20.480  25.236 -12.043  0.00  0.00     0.080 C 
HETATM    5  C   UNK N   1     -20.186  24.809 -13.470  0.00  0.00     0.011 A 
HETATM    6  C   UNK N   1     -19.275  23.755 -13.710  0.00  0.00     0.081 A 
HETATM    7  C   UNK N   1     -20.795  25.460 -14.558  0.00  0.00     0.077 A 
HETATM    8  C   UNK N   1     -19.005  23.346 -15.018  0.00  0.00     0.074 A 
HETATM    9  C   UNK N   1     -20.508  25.045 -15.868  0.00  0.00     0.073 A 
HETATM   10  C   UNK N   1     -19.618  23.990 -16.099  0.00  0.00     0.071 A 
ENDROOT
BRANCH   2  11
HETATM   11  O   UNK N   1     -20.936  23.070 -11.168  0.00  0.00    -0.309 OA
BRANCH  11  12
HETATM   12  C   UNK N   1     -22.031  22.857 -10.394  0.00  0.00     0.294 C 
HETATM   13  O   UNK N   1     -21.923  22.756  -9.179  0.00  0.00    -0.259 OA
BRANCH  12  14
HETATM   14  C   UNK N   1     -23.350  22.748 -11.046  0.00  0.00     0.045 A 
HETATM   15  C   UNK N   1     -23.916  21.497 -11.345  0.00  0.00     0.057 A 
HETATM   16  C   UNK N   1     -25.169  21.421 -11.973  0.00  0.00     0.102 A 
HETATM   17  C   UNK N   1     -25.872  22.601 -12.282  0.00  0.00     0.132 A 
HETATM   18  C   UNK N   1     -25.317  23.849 -11.964  0.00  0.00     0.102 A 
HETATM   19  C   UNK N   1     -24.058  23.917 -11.359  0.00  0.00     0.057 A 
BRANCH  16  20
HETATM   20  O   UNK N   1     -25.701  20.219 -12.281  0.00  0.00    -0.358 OA
HETATM   21  H   UNK N   1     -26.607  20.130 -12.610  0.00  0.00     0.218 HD
ENDBRANCH  16  20
BRANCH  17  22
HETATM   22  O   UNK N   1     -27.082  22.554 -12.883  0.00  0.00    -0.356 OA
HETATM   23  H   UNK N   1     -27.390  23.250 -13.480  0.00  0.00     0.218 HD
ENDBRANCH  17  22
BRANCH  18  24
HETATM   24  O   UNK N   1     -25.998  24.979 -12.242  0.00  0.00    -0.358 OA
HETATM   25  H   UNK N   1     -26.156  25.655 -11.567  0.00  0.00     0.218 HD
ENDBRANCH  18  24
ENDBRANCH  12  14
ENDBRANCH  11  12
ENDBRANCH   2  11
BRANCH   3  26
HETATM   26  C   UNK N   1     -18.128  22.642 -10.401  0.00  0.00    -0.021 A 
HETATM   27  C   UNK N   1     -17.123  21.749 -10.800  0.00  0.00     0.049 A 
HETATM   28  C   UNK N   1     -16.623  20.790  -9.907  0.00  0.00     0.102 A 
HETATM   29  C   UNK N   1     -17.131  20.713  -8.604  0.00  0.00     0.132 A 
HETATM   30  C   UNK N   1     -18.139  21.606  -8.191  0.00  0.00     0.102 A 
HETATM   31  C   UNK N   1     -18.631  22.569  -9.088  0.00  0.00     0.049 A 
BRANCH  28  32
HETATM   32  O   UNK N   1     -15.653  19.938 -10.299  0.00  0.00    -0.358 OA
HETATM   33  H   UNK N   1     -14.720  20.198 -10.307  0.00  0.00     0.218 HD
ENDBRANCH  28  32
BRANCH  29  34
HETATM   34  O   UNK N   1     -16.644  19.777  -7.760  0.00  0.00    -0.356 OA
HETATM   35  H   UNK N   1     -15.700  19.695  -7.565  0.00  0.00     0.218 HD
ENDBRANCH  29  34
BRANCH  30  36
HETATM   36  O   UNK N   1     -18.632  21.531  -6.937  0.00  0.00    -0.358 OA
HETATM   37  H   UNK N   1     -19.399  20.982  -6.719  0.00  0.00     0.218 HD
ENDBRANCH  30  36
ENDBRANCH   3  26
BRANCH   7  38
HETATM   38  O   UNK N   1     -21.660  26.474 -14.342  0.00  0.00    -0.360 OA
HETATM   39  H   UNK N   1     -22.080  26.610 -13.481  0.00  0.00     0.217 HD
ENDBRANCH   7  38
BRANCH  10  40
HETATM   40  O   UNK N   1     -19.351  23.609 -17.366  0.00  0.00    -0.361 OA
HETATM   41  H   UNK N   1     -19.659  24.121 -18.127  0.00  0.00     0.217 HD
ENDBRANCH  10  40
TORSDOF 12
ENDMDL
MODEL 7
REMARK VINA RESULT:      -7.2     10.364     16.395
REMARK  12 active torsions:
REMARK  status: ('A' for Active; 'I' for Inactive)
REMARK    1  A    between atoms: O_2  and  C_12 
REMARK    2  A    between atoms: O_2  and  C_24 
REMARK    3  A    between atoms: O_3  and  C_18 
REMARK    4  A    between atoms: O_4  and  C_23 
REMARK    5  A    between atoms: O_5  and  C_25 
REMARK    6  A    between atoms: O_6  and  C_26 
REMARK    7  A    between atoms: O_8  and  C_27 
REMARK    8  A    between atoms: O_9  and  C_31 
REMARK    9  A    between atoms: O_10  and  C_32 
REMARK   10  A    between atoms: O_11  and  C_33 
REMARK   11  A    between atoms: C_13  and  C_16 
REMARK   12  A    between atoms: C_24  and  C_28 
ROOT
HETATM    1  O   UNK N   1     -21.508  26.033 -15.004  0.00  0.00    -0.338 OA
HETATM    2  C   UNK N   1     -21.695  25.216 -17.241  0.00  0.00     0.170 C 
HETATM    3  C   UNK N   1     -21.676  26.443 -16.318  0.00  0.00     0.192 C 
HETATM    4  C   UNK N   1     -20.342  24.479 -17.095  0.00  0.00     0.080 C 
HETATM    5  C   UNK N   1     -19.975  24.292 -15.634  0.00  0.00     0.011 A 
HETATM    6  C   UNK N   1     -20.601  25.089 -14.649  0.00  0.00     0.081 A 
HETATM    7  C   UNK N   1     -19.005  23.348 -15.249  0.00  0.00     0.077 A 
HETATM    8  C   UNK N   1     -20.279  24.917 -13.300  0.00  0.00     0.074 A 
HETATM    9  C   UNK N   1     -18.685  23.192 -13.891  0.00  0.00     0.073 A 
HETATM   10  C   UNK N   1     -19.320  23.972 -12.918  0.00  0.00     0.071 A 
ENDROOT
BRANCH   2  11
HETATM   11  O   UNK N   1     -22.704  24.371 -16.827  0.00  0.00    -0.309 OA
BRANCH  11  12
HETATM   12  C   UNK N   1     -23.751  23.977 -17.597  0.00  0.00     0.294 C 
HETATM   13  O   UNK N   1     -23.595  23.150 -18.484  0.00  0.00    -0.259 OA
BRANCH  12  14
HETATM   14  C   UNK N   1     -25.080  24.569 -17.343  0.00  0.00     0.045 A 
HETATM   15  C   UNK N   1     -25.703  24.454 -16.088  0.00  0.00     0.057 A 
HETATM   16  C   UNK N   1     -26.970  25.020 -15.876  0.00  0.00     0.102 A 
HETATM   17  C   UNK N   1     -27.608  25.724 -16.915  0.00  0.00     0.132 A 
HETATM   18  C   UNK N   1     -26.977  25.856 -18.159  0.00  0.00     0.102 A 
HETATM   19  C   UNK N   1     -25.725  25.271 -18.371  0.00  0.00     0.057 A 
BRANCH  16  20
HETATM   20  O   UNK N   1     -27.577  24.889 -14.677  0.00  0.00    -0.358 OA
HETATM   21  H   UNK N   1     -27.083  24.665 -13.876  0.00  0.00     0.218 HD
ENDBRANCH  16  20
BRANCH  17  22
HETATM   22  O   UNK N   1     -28.826  26.280 -16.733  0.00  0.00    -0.356 OA
HETATM   23  H   UNK N   1     -29.011  27.204 -16.954  0.00  0.00     0.218 HD
ENDBRANCH  17  22
BRANCH  18  24
HETATM   24  O   UNK N   1     -27.578  26.548 -19.149  0.00  0.00    -0.358 OA
HETATM   25  H   UNK N   1     -28.534  26.493 -19.299  0.00  0.00     0.218 HD
ENDBRANCH  18  24
ENDBRANCH  12  14
ENDBRANCH  11  12
ENDBRANCH   2  11
BRANCH   3  26
HETATM   26  C   UNK N   1     -22.930  27.281 -16.456  0.00  0.00    -0.021 A 
HETATM   27  C   UNK N   1     -23.793  27.419 -15.358  0.00  0.00     0.049 A 
HETATM   28  C   UNK N   1     -24.963  28.184 -15.462  0.00  0.00     0.102 A 
HETATM   29  C   UNK N   1     -25.285  28.815 -16.670  0.00  0.00     0.132 A 
HETATM   30  C   UNK N   1     -24.426  28.685 -17.779  0.00  0.00     0.102 A 
HETATM   31  C   UNK N   1     -23.250  27.925 -17.667  0.00  0.00     0.049 A 
BRANCH  28  32
HETATM   32  O   UNK N   1     -25.785  28.314 -14.399  0.00  0.00    -0.358 OA
HETATM   33  H   UNK N   1     -26.162  29.170 -14.149  0.00  0.00     0.218 HD
ENDBRANCH  28  32
BRANCH  29  34
HETATM   34  O   UNK N   1     -26.422  29.541 -16.754  0.00  0.00    -0.356 OA
HETATM   35  H   UNK N   1     -27.198  29.354 -16.208  0.00  0.00     0.218 HD
ENDBRANCH  29  34
BRANCH  30  36
HETATM   36  O   UNK N   1     -24.736  29.290 -18.945  0.00  0.00    -0.358 OA
HETATM   37  H   UNK N   1     -24.322  29.033 -19.782  0.00  0.00     0.218 HD
ENDBRANCH  30  36
ENDBRANCH   3  26
BRANCH   7  38
HETATM   38  O   UNK N   1     -18.394  22.587 -16.182  0.00  0.00    -0.360 OA
HETATM   39  H   UNK N   1     -18.498  21.626 -16.203  0.00  0.00     0.217 HD
ENDBRANCH   7  38
BRANCH  10  40
HETATM   40  O   UNK N   1     -18.994  23.811 -11.618  0.00  0.00    -0.361 OA
HETATM   41  H   UNK N   1     -18.144  23.435 -11.349  0.00  0.00     0.217 HD
ENDBRANCH  10  40
TORSDOF 12
ENDMDL
MODEL 8
REMARK VINA RESULT:      -7.1     28.618     31.070
REMARK  12 active torsions:
REMARK  status: ('A' for Active; 'I' for Inactive)
REMARK    1  A    between atoms: O_2  and  C_12 
REMARK    2  A    between atoms: O_2  and  C_24 
REMARK    3  A    between atoms: O_3  and  C_18 
REMARK    4  A    between atoms: O_4  and  C_23 
REMARK    5  A    between atoms: O_5  and  C_25 
REMARK    6  A    between atoms: O_6  and  C_26 
REMARK    7  A    between atoms: O_8  and  C_27 
REMARK    8  A    between atoms: O_9  and  C_31 
REMARK    9  A    between atoms: O_10  and  C_32 
REMARK   10  A    between atoms: O_11  and  C_33 
REMARK   11  A    between atoms: C_13  and  C_16 
REMARK   12  A    between atoms: C_24  and  C_28 
ROOT
HETATM    1  O   UNK N   1     -38.553   0.119  -4.023  0.00  0.00    -0.338 OA
HETATM    2  C   UNK N   1     -39.568  -1.852  -3.131  0.00  0.00     0.170 C 
HETATM    3  C   UNK N   1     -38.264  -1.088  -3.406  0.00  0.00     0.192 C 
HETATM    4  C   UNK N   1     -40.447  -0.987  -2.197  0.00  0.00     0.080 C 
HETATM    5  C   UNK N   1     -40.527   0.446  -2.689  0.00  0.00     0.011 A 
HETATM    6  C   UNK N   1     -39.560   0.926  -3.603  0.00  0.00     0.081 A 
HETATM    7  C   UNK N   1     -41.538   1.312  -2.233  0.00  0.00     0.077 A 
HETATM    8  C   UNK N   1     -39.630   2.240  -4.072  0.00  0.00     0.074 A 
HETATM    9  C   UNK N   1     -41.590   2.633  -2.705  0.00  0.00     0.073 A 
HETATM   10  C   UNK N   1     -40.642   3.096  -3.623  0.00  0.00     0.071 A 
ENDROOT
BRANCH   2  11
HETATM   11  O   UNK N   1     -40.234  -2.025  -4.327  0.00  0.00    -0.309 OA
BRANCH  11  12
HETATM   12  C   UNK N   1     -40.711  -3.212  -4.785  0.00  0.00     0.294 C 
HETATM   13  O   UNK N   1     -41.872  -3.536  -4.579  0.00  0.00    -0.259 OA
BRANCH  12  14
HETATM   14  C   UNK N   1     -39.800  -4.101  -5.533  0.00  0.00     0.045 A 
HETATM   15  C   UNK N   1     -39.593  -3.941  -6.913  0.00  0.00     0.057 A 
HETATM   16  C   UNK N   1     -38.728  -4.805  -7.601  0.00  0.00     0.102 A 
HETATM   17  C   UNK N   1     -38.046  -5.820  -6.902  0.00  0.00     0.132 A 
HETATM   18  C   UNK N   1     -38.237  -5.966  -5.521  0.00  0.00     0.102 A 
HETATM   19  C   UNK N   1     -39.118  -5.115  -4.846  0.00  0.00     0.057 A 
BRANCH  16  20
HETATM   20  O   UNK N   1     -38.548  -4.666  -8.932  0.00  0.00    -0.358 OA
HETATM   21  H   UNK N   1     -39.228  -4.279  -9.502  0.00  0.00     0.218 HD
ENDBRANCH  16  20
BRANCH  17  22
HETATM   22  O   UNK N   1     -37.205  -6.662  -7.542  0.00  0.00    -0.356 OA
HETATM   23  H   UNK N   1     -36.244  -6.556  -7.509  0.00  0.00     0.218 HD
ENDBRANCH  17  22
BRANCH  18  24
HETATM   24  O   UNK N   1     -37.569  -6.924  -4.847  0.00  0.00    -0.358 OA
HETATM   25  H   UNK N   1     -37.119  -6.737  -4.010  0.00  0.00     0.218 HD
ENDBRANCH  18  24
ENDBRANCH  12  14
ENDBRANCH  11  12
ENDBRANCH   2  11
BRANCH   3  26
HETATM   26  C   UNK N   1     -37.296  -1.896  -4.246  0.00  0.00    -0.021 A 
HETATM   27  C   UNK N   1     -37.161  -1.606  -5.612  0.00  0.00     0.049 A 
HETATM   28  C   UNK N   1     -36.277  -2.342  -6.414  0.00  0.00     0.102 A 
HETATM   29  C   UNK N   1     -35.522  -3.382  -5.855  0.00  0.00     0.132 A 
HETATM   30  C   UNK N   1     -35.648  -3.681  -4.485  0.00  0.00     0.102 A 
HETATM   31  C   UNK N   1     -36.529  -2.934  -3.684  0.00  0.00     0.049 A 
BRANCH  28  32
HETATM   32  O   UNK N   1     -36.151  -2.054  -7.726  0.00  0.00    -0.358 OA
HETATM   33  H   UNK N   1     -36.701  -2.483  -8.397  0.00  0.00     0.218 HD
ENDBRANCH  28  32
BRANCH  29  34
HETATM   34  O   UNK N   1     -34.682  -4.086  -6.645  0.00  0.00    -0.356 OA
HETATM   35  H   UNK N   1     -34.796  -4.143  -7.604  0.00  0.00     0.218 HD
ENDBRANCH  29  34
BRANCH  30  36
HETATM   36  O   UNK N   1     -34.924  -4.684  -3.945  0.00  0.00    -0.358 OA
HETATM   37  H   UNK N   1     -34.288  -4.531  -3.231  0.00  0.00     0.218 HD
ENDBRANCH  30  36
ENDBRANCH   3  26
BRANCH   7  38
HETATM   38  O   UNK N   1     -42.461   0.868  -1.353  0.00  0.00    -0.360 OA
HETATM   39  H   UNK N   1     -42.556   1.260  -0.474  0.00  0.00     0.217 HD
ENDBRANCH   7  38
BRANCH  10  40
HETATM   40  O   UNK N   1     -40.707   4.371  -4.061  0.00  0.00    -0.361 OA
HETATM   41  H   UNK N   1     -41.553   4.803  -4.247  0.00  0.00     0.217 HD
ENDBRANCH  10  40
TORSDOF 12
ENDMDL
MODEL 9
REMARK VINA RESULT:      -7.1     10.411     15.813
REMARK  12 active torsions:
REMARK  status: ('A' for Active; 'I' for Inactive)
REMARK    1  A    between atoms: O_2  and  C_12 
REMARK    2  A    between atoms: O_2  and  C_24 
REMARK    3  A    between atoms: O_3  and  C_18 
REMARK    4  A    between atoms: O_4  and  C_23 
REMARK    5  A    between atoms: O_5  and  C_25 
REMARK    6  A    between atoms: O_6  and  C_26 
REMARK    7  A    between atoms: O_8  and  C_27 
REMARK    8  A    between atoms: O_9  and  C_31 
REMARK    9  A    between atoms: O_10  and  C_32 
REMARK   10  A    between atoms: O_11  and  C_33 
REMARK   11  A    between atoms: C_13  and  C_16 
REMARK   12  A    between atoms: C_24  and  C_28 
ROOT
HETATM    1  O   UNK N   1     -21.766  25.383 -14.167  0.00  0.00    -0.338 OA
HETATM    2  C   UNK N   1     -22.259  25.645 -16.491  0.00  0.00     0.170 C 
HETATM    3  C   UNK N   1     -22.295  26.273 -15.090  0.00  0.00     0.192 C 
HETATM    4  C   UNK N   1     -20.784  25.341 -16.847  0.00  0.00     0.080 C 
HETATM    5  C   UNK N   1     -20.080  24.629 -15.707  0.00  0.00     0.011 A 
HETATM    6  C   UNK N   1     -20.629  24.682 -14.405  0.00  0.00     0.081 A 
HETATM    7  C   UNK N   1     -18.876  23.932 -15.923  0.00  0.00     0.077 A 
HETATM    8  C   UNK N   1     -19.995  24.021 -13.349  0.00  0.00     0.074 A 
HETATM    9  C   UNK N   1     -18.246  23.281 -14.851  0.00  0.00     0.073 A 
HETATM   10  C   UNK N   1     -18.803  23.322 -13.569  0.00  0.00     0.071 A 
ENDROOT
BRANCH   2  11
HETATM   11  O   UNK N   1     -22.959  24.456 -16.456  0.00  0.00    -0.309 OA
BRANCH  11  12
HETATM   12  C   UNK N   1     -23.902  24.084 -17.359  0.00  0.00     0.294 C 
HETATM   13  O   UNK N   1     -23.637  23.277 -18.238  0.00  0.00    -0.259 OA
BRANCH  12  14
HETATM   14  C   UNK N   1     -25.252  24.675 -17.258  0.00  0.00     0.045 A 
HETATM   15  C   UNK N   1     -25.721  25.593 -18.213  0.00  0.00     0.057 A 
HETATM   16  C   UNK N   1     -27.005  26.145 -18.089  0.00  0.00     0.102 A 
HETATM   17  C   UNK N   1     -27.835  25.760 -17.018  0.00  0.00     0.132 A 
HETATM   18  C   UNK N   1     -27.374  24.829 -16.077  0.00  0.00     0.102 A 
HETATM   19  C   UNK N   1     -26.085  24.300 -16.195  0.00  0.00     0.057 A 
BRANCH  16  20
HETATM   20  O   UNK N   1     -27.446  27.044 -18.994  0.00  0.00    -0.358 OA
HETATM   21  H   UNK N   1     -27.570  27.978 -18.768  0.00  0.00     0.218 HD
ENDBRANCH  16  20
BRANCH  17  22
HETATM   22  O   UNK N   1     -29.076  26.275 -16.879  0.00  0.00    -0.356 OA
HETATM   23  H   UNK N   1     -29.299  26.906 -16.180  0.00  0.00     0.218 HD
ENDBRANCH  17  22
BRANCH  18  24
HETATM   24  O   UNK N   1     -28.175  24.444 -15.063  0.00  0.00    -0.358 OA
HETATM   25  H   UNK N   1     -28.316  25.005 -14.286  0.00  0.00     0.218 HD
ENDBRANCH  18  24
ENDBRANCH  12  14
ENDBRANCH  11  12
ENDBRANCH   2  11
BRANCH   3  26
HETATM   26  C   UNK N   1     -23.694  26.688 -14.685  0.00  0.00    -0.021 A 
HETATM   27  C   UNK N   1     -24.300  26.082 -13.574  0.00  0.00     0.049 A 
HETATM   28  C   UNK N   1     -25.597  26.442 -13.183  0.00  0.00     0.102 A 
HETATM   29  C   UNK N   1     -26.304  27.412 -13.905  0.00  0.00     0.132 A 
HETATM   30  C   UNK N   1     -25.706  28.029 -15.021  0.00  0.00     0.102 A 
HETATM   31  C   UNK N   1     -24.403  27.670 -15.405  0.00  0.00     0.049 A 
BRANCH  28  32
HETATM   32  O   UNK N   1     -26.170  25.857 -12.111  0.00  0.00    -0.358 OA
HETATM   33  H   UNK N   1     -26.992  25.352 -12.185  0.00  0.00     0.218 HD
ENDBRANCH  28  32
BRANCH  29  34
HETATM   34  O   UNK N   1     -27.556  27.741 -13.519  0.00  0.00    -0.356 OA
HETATM   35  H   UNK N   1     -28.311  27.711 -14.123  0.00  0.00     0.218 HD
ENDBRANCH  29  34
BRANCH  30  36
HETATM   36  O   UNK N   1     -26.387  28.961 -15.721  0.00  0.00    -0.358 OA
HETATM   37  H   UNK N   1     -26.149  29.195 -16.630  0.00  0.00     0.218 HD
ENDBRANCH  30  36
ENDBRANCH   3  26
BRANCH   7  38
HETATM   38  O   UNK N   1     -18.338  23.883 -17.160  0.00  0.00    -0.360 OA
HETATM   39  H   UNK N   1     -18.623  24.481 -17.864  0.00  0.00     0.217 HD
ENDBRANCH   7  38
BRANCH  10  40
HETATM   40  O   UNK N   1     -18.178  22.694 -12.551  0.00  0.00    -0.361 OA
HETATM   41  H   UNK N   1     -17.322  22.996 -12.214  0.00  0.00     0.217 HD
ENDBRANCH  10  40
TORSDOF 12
ENDMDL
