MODEL 1
REMARK VINA RESULT:      -5.2      0.000      0.000
REMARK  4 active torsions:
REMARK  status: ('A' for Active; 'I' for Inactive)
REMARK    1  A    between atoms: O_1  and  C_7 
REMARK    2  A    between atoms: O_2  and  C_9 
REMARK    3  A    between atoms: O_3  and  C_11 
REMARK    4  A    between atoms: C_5  and  C_11 
ROOT
HETATM    1  C   UNK N   1     -17.164  19.573  -7.545  0.00  0.00     0.040 A 
HETATM    2  C   UNK N   1     -16.319  19.402  -8.660  0.00  0.00     0.057 A 
HETATM    3  C   UNK N   1     -16.261  20.383  -9.662  0.00  0.00     0.099 A 
HETATM    4  C   UNK N   1     -17.946  20.734  -7.449  0.00  0.00     0.021 A 
HETATM    5  C   UNK N   1     -17.051  21.543  -9.551  0.00  0.00     0.098 A 
HETATM    6  C   UNK N   1     -17.889  21.710  -8.441  0.00  0.00     0.040 A 
ENDROOT
BRANCH   1   7
HETATM    7  C   UNK N   1     -17.243  18.551  -6.474  0.00  0.00     0.176 C 
HETATM    8  O   UNK N   1     -16.239  18.209  -5.867  0.00  0.00    -0.646 OA
BRANCH   7   9
HETATM    9  O   UNK N   1     -18.436  17.995  -6.164  0.00  0.00    -0.773 OA
HETATM   10  H   UNK N   1     -18.695  17.826  -5.248  0.00  0.00     0.167 HD
ENDBRANCH   7   9
ENDBRANCH   1   7
BRANCH   3  11
HETATM   11  O   UNK N   1     -15.444  20.198 -10.720  0.00  0.00    -0.358 OA
HETATM   12  H   UNK N   1     -14.612  19.708 -10.649  0.00  0.00     0.218 HD
ENDBRANCH   3  11
BRANCH   5  13
HETATM   13  O   UNK N   1     -17.003  22.492 -10.508  0.00  0.00    -0.358 OA
HETATM   14  H   UNK N   1     -16.922  22.262 -11.445  0.00  0.00     0.218 HD
ENDBRANCH   5  13
TORSDOF 4
ENDMDL
MODEL 2
REMARK VINA RESULT:      -5.0     24.507     26.564
REMARK  4 active torsions:
REMARK  status: ('A' for Active; 'I' for Inactive)
REMARK    1  A    between atoms: O_1  and  C_7 
REMARK    2  A    between atoms: O_2  and  C_9 
REMARK    3  A    between atoms: O_3  and  C_11 
REMARK    4  A    between atoms: C_5  and  C_11 
ROOT
HETATM    1  C   UNK N   1     -30.495  42.887  -9.015  0.00  0.00     0.040 A 
HETATM    2  C   UNK N   1     -31.069  43.148  -7.755  0.00  0.00     0.057 A 
HETATM    3  C   UNK N   1     -31.288  42.103  -6.845  0.00  0.00     0.099 A 
HETATM    4  C   UNK N   1     -30.147  41.569  -9.349  0.00  0.00     0.021 A 
HETATM    5  C   UNK N   1     -30.932  40.786  -7.195  0.00  0.00     0.098 A 
HETATM    6  C   UNK N   1     -30.363  40.529  -8.448  0.00  0.00     0.040 A 
ENDROOT
BRANCH   1   7
HETATM    7  C   UNK N   1     -30.254  43.974  -9.993  0.00  0.00     0.176 C 
HETATM    8  O   UNK N   1     -30.107  45.127  -9.616  0.00  0.00    -0.646 OA
BRANCH   7   9
HETATM    9  O   UNK N   1     -30.195  43.688 -11.313  0.00  0.00    -0.773 OA
HETATM   10  H   UNK N   1     -29.728  44.260 -11.937  0.00  0.00     0.167 HD
ENDBRANCH   7   9
ENDBRANCH   1   7
BRANCH   3  11
HETATM   11  O   UNK N   1     -31.837  42.377  -5.643  0.00  0.00    -0.358 OA
HETATM   12  H   UNK N   1     -32.615  41.906  -5.313  0.00  0.00     0.218 HD
ENDBRANCH   3  11
BRANCH   5  13
HETATM   13  O   UNK N   1     -31.138  39.773  -6.328  0.00  0.00    -0.358 OA
HETATM   14  H   UNK N   1     -31.252  39.933  -5.380  0.00  0.00     0.218 HD
ENDBRANCH   5  13
TORSDOF 4
ENDMDL
MODEL 3
REMARK VINA RESULT:      -4.9      1.923      3.453
REMARK  4 active torsions:
REMARK  status: ('A' for Active; 'I' for Inactive)
REMARK    1  A    between atoms: O_1  and  C_7 
REMARK    2  A    between atoms: O_2  and  C_9 
REMARK    3  A    between atoms: O_3  and  C_11 
REMARK    4  A    between atoms: C_5  and  C_11 
ROOT
HETATM    1  C   UNK N   1     -17.576  20.910  -8.385  0.00  0.00     0.040 A 
HETATM    2  C   UNK N   1     -16.799  20.761  -9.551  0.00  0.00     0.057 A 
HETATM    3  C   UNK N   1     -15.772  19.807  -9.601  0.00  0.00     0.099 A 
HETATM    4  C   UNK N   1     -17.310  20.093  -7.275  0.00  0.00     0.021 A 
HETATM    5  C   UNK N   1     -15.517  18.994  -8.479  0.00  0.00     0.098 A 
HETATM    6  C   UNK N   1     -16.292  19.144  -7.322  0.00  0.00     0.040 A 
ENDROOT
BRANCH   1   7
HETATM    7  C   UNK N   1     -18.666  21.911  -8.307  0.00  0.00     0.176 C 
HETATM    8  O   UNK N   1     -19.026  22.516  -9.306  0.00  0.00    -0.646 OA
BRANCH   7   9
HETATM    9  O   UNK N   1     -19.269  22.156  -7.122  0.00  0.00    -0.773 OA
HETATM   10  H   UNK N   1     -18.868  21.889  -6.284  0.00  0.00     0.167 HD
ENDBRANCH   7   9
ENDBRANCH   1   7
BRANCH   3  11
HETATM   11  O   UNK N   1     -15.041  19.681 -10.729  0.00  0.00    -0.358 OA
HETATM   12  H   UNK N   1     -15.056  18.876 -11.265  0.00  0.00     0.218 HD
ENDBRANCH   3  11
BRANCH   5  13
HETATM   13  O   UNK N   1     -14.532  18.073  -8.517  0.00  0.00    -0.358 OA
HETATM   14  H   UNK N   1     -13.927  18.010  -9.270  0.00  0.00     0.218 HD
ENDBRANCH   5  13
TORSDOF 4
ENDMDL
MODEL 4
REMARK VINA RESULT:      -4.9     23.807     25.664
REMARK  4 active torsions:
REMARK  status: ('A' for Active; 'I' for Inactive)
REMARK    1  A    between atoms: O_1  and  C_7 
REMARK    2  A    between atoms: O_2  and  C_9 
REMARK    3  A    between atoms: O_3  and  C_11 
REMARK    4  A    between atoms: C_5  and  C_11 
ROOT
HETATM    1  C   UNK N   1     -30.623  40.862  -8.127  0.00  0.00     0.040 A 
HETATM    2  C   UNK N   1     -30.748  41.958  -7.249  0.00  0.00     0.057 A 
HETATM    3  C   UNK N   1     -30.520  43.264  -7.708  0.00  0.00     0.099 A 
HETATM    4  C   UNK N   1     -30.267  41.094  -9.465  0.00  0.00     0.021 A 
HETATM    5  C   UNK N   1     -30.165  43.480  -9.054  0.00  0.00     0.098 A 
HETATM    6  C   UNK N   1     -30.042  42.389  -9.923  0.00  0.00     0.040 A 
ENDROOT
BRANCH   1   7
HETATM    7  C   UNK N   1     -30.857  39.474  -7.665  0.00  0.00     0.176 C 
HETATM    8  O   UNK N   1     -30.913  38.553  -8.467  0.00  0.00    -0.646 OA
BRANCH   7   9
HETATM    9  O   UNK N   1     -31.010  39.223  -6.345  0.00  0.00    -0.773 OA
HETATM   10  H   UNK N   1     -31.883  39.193  -5.931  0.00  0.00     0.167 HD
ENDBRANCH   7   9
ENDBRANCH   1   7
BRANCH   3  11
HETATM   11  O   UNK N   1     -30.647  44.298  -6.849  0.00  0.00    -0.358 OA
HETATM   12  H   UNK N   1     -31.033  45.144  -7.116  0.00  0.00     0.218 HD
ENDBRANCH   3  11
BRANCH   5  13
HETATM   13  O   UNK N   1     -29.945  44.731  -9.506  0.00  0.00    -0.358 OA
HETATM   14  H   UNK N   1     -29.889  44.924 -10.454  0.00  0.00     0.218 HD
ENDBRANCH   5  13
TORSDOF 4
ENDMDL
MODEL 5
REMARK VINA RESULT:      -4.9     29.411     29.997
REMARK  4 active torsions:
REMARK  status: ('A' for Active; 'I' for Inactive)
REMARK    1  A    between atoms: O_1  and  C_7 
REMARK    2  A    between atoms: O_2  and  C_9 
REMARK    3  A    between atoms: O_3  and  C_11 
REMARK    4  A    between atoms: C_5  and  C_11 
ROOT
HETATM    1  C   UNK N   1     -37.664  -1.147  -4.465  0.00  0.00     0.040 A 
HETATM    2  C   UNK N   1     -37.427  -1.188  -5.854  0.00  0.00     0.057 A 
HETATM    3  C   UNK N   1     -36.559  -2.148  -6.396  0.00  0.00     0.099 A 
HETATM    4  C   UNK N   1     -37.021  -2.075  -3.632  0.00  0.00     0.021 A 
HETATM    5  C   UNK N   1     -35.921  -3.073  -5.547  0.00  0.00     0.098 A 
HETATM    6  C   UNK N   1     -36.159  -3.029  -4.168  0.00  0.00     0.040 A 
ENDROOT
BRANCH   1   7
HETATM    7  C   UNK N   1     -38.577  -0.143  -3.869  0.00  0.00     0.176 C 
HETATM    8  O   UNK N   1     -39.774  -0.372  -3.771  0.00  0.00    -0.646 OA
BRANCH   7   9
HETATM    9  O   UNK N   1     -38.082   1.035  -3.427  0.00  0.00    -0.773 OA
HETATM   10  H   UNK N   1     -38.366   1.422  -2.588  0.00  0.00     0.167 HD
ENDBRANCH   7   9
ENDBRANCH   1   7
BRANCH   3  11
HETATM   11  O   UNK N   1     -36.348  -2.169  -7.729  0.00  0.00    -0.358 OA
HETATM   12  H   UNK N   1     -35.476  -2.348  -8.110  0.00  0.00     0.218 HD
ENDBRANCH   3  11
BRANCH   5  13
HETATM   13  O   UNK N   1     -35.084  -3.999  -6.058  0.00  0.00    -0.358 OA
HETATM   14  H   UNK N   1     -34.900  -4.827  -5.591  0.00  0.00     0.218 HD
ENDBRANCH   5  13
TORSDOF 4
ENDMDL
MODEL 6
REMARK VINA RESULT:      -4.9     13.275     14.782
REMARK  4 active torsions:
REMARK  status: ('A' for Active; 'I' for Inactive)
REMARK    1  A    between atoms: O_1  and  C_7 
REMARK    2  A    between atoms: O_2  and  C_9 
REMARK    3  A    between atoms: O_3  and  C_11 
REMARK    4  A    between atoms: C_5  and  C_11 
ROOT
HETATM    1  C   UNK N   1     -25.073  12.010  -0.284  0.00  0.00     0.040 A 
HETATM    2  C   UNK N   1     -25.448  11.721   1.044  0.00  0.00     0.057 A 
HETATM    3  C   UNK N   1     -24.474  11.613   2.048  0.00  0.00     0.099 A 
HETATM    4  C   UNK N   1     -23.714  12.187  -0.589  0.00  0.00     0.021 A 
HETATM    5  C   UNK N   1     -23.115  11.795   1.726  0.00  0.00     0.098 A 
HETATM    6  C   UNK N   1     -22.746  12.081   0.406  0.00  0.00     0.040 A 
ENDROOT
BRANCH   1   7
HETATM    7  C   UNK N   1     -26.083  12.128  -1.362  0.00  0.00     0.176 C 
HETATM    8  O   UNK N   1     -26.387  13.223  -1.810  0.00  0.00    -0.646 OA
BRANCH   7   9
HETATM    9  O   UNK N   1     -26.672  11.015  -1.855  0.00  0.00    -0.773 OA
HETATM   10  H   UNK N   1     -26.471  10.685  -2.741  0.00  0.00     0.167 HD
ENDBRANCH   7   9
ENDBRANCH   1   7
BRANCH   3  11
HETATM   11  O   UNK N   1     -24.857  11.337   3.313  0.00  0.00    -0.358 OA
HETATM   12  H   UNK N   1     -25.727  11.590   3.654  0.00  0.00     0.218 HD
ENDBRANCH   3  11
BRANCH   5  13
HETATM   13  O   UNK N   1     -22.170  11.694   2.684  0.00  0.00    -0.358 OA
HETATM   14  H   UNK N   1     -21.339  12.188   2.629  0.00  0.00     0.218 HD
ENDBRANCH   5  13
TORSDOF 4
ENDMDL
MODEL 7
REMARK VINA RESULT:      -4.8      1.909      2.498
REMARK  4 active torsions:
REMARK  status: ('A' for Active; 'I' for Inactive)
REMARK    1  A    between atoms: O_1  and  C_7 
REMARK    2  A    between atoms: O_2  and  C_9 
REMARK    3  A    between atoms: O_3  and  C_11 
REMARK    4  A    between atoms: C_5  and  C_11 
ROOT
HETATM    1  C   UNK N   1     -16.729  20.069  -9.648  0.00  0.00     0.040 A 
HETATM    2  C   UNK N   1     -16.890  19.875 -11.035  0.00  0.00     0.057 A 
HETATM    3  C   UNK N   1     -17.566  20.830 -11.810  0.00  0.00     0.099 A 
HETATM    4  C   UNK N   1     -17.253  21.227  -9.053  0.00  0.00     0.021 A 
HETATM    5  C   UNK N   1     -18.085  21.987 -11.199  0.00  0.00     0.098 A 
HETATM    6  C   UNK N   1     -17.923  22.176  -9.821  0.00  0.00     0.040 A 
ENDROOT
BRANCH   1   7
HETATM    7  C   UNK N   1     -16.020  19.075  -8.808  0.00  0.00     0.176 C 
HETATM    8  O   UNK N   1     -14.828  18.862  -8.971  0.00  0.00    -0.646 OA
BRANCH   7   9
HETATM    9  O   UNK N   1     -16.697  18.400  -7.852  0.00  0.00    -0.773 OA
HETATM   10  H   UNK N   1     -17.261  17.645  -8.066  0.00  0.00     0.167 HD
ENDBRANCH   7   9
ENDBRANCH   1   7
BRANCH   3  11
HETATM   11  O   UNK N   1     -17.707  20.623 -13.137  0.00  0.00    -0.358 OA
HETATM   12  H   UNK N   1     -18.318  19.962 -13.493  0.00  0.00     0.218 HD
ENDBRANCH   3  11
BRANCH   5  13
HETATM   13  O   UNK N   1     -18.736  22.911 -11.935  0.00  0.00    -0.358 OA
HETATM   14  H   UNK N   1     -19.495  22.675 -12.488  0.00  0.00     0.218 HD
ENDBRANCH   5  13
TORSDOF 4
ENDMDL
MODEL 8
REMARK VINA RESULT:      -4.8      1.432      4.521
REMARK  4 active torsions:
REMARK  status: ('A' for Active; 'I' for Inactive)
REMARK    1  A    between atoms: O_1  and  C_7 
REMARK    2  A    between atoms: O_2  and  C_9 
REMARK    3  A    between atoms: O_3  and  C_11 
REMARK    4  A    between atoms: C_5  and  C_11 
ROOT
HETATM    1  C   UNK N   1     -16.838  20.576  -8.880  0.00  0.00     0.040 A 
HETATM    2  C   UNK N   1     -17.193  20.550  -7.516  0.00  0.00     0.057 A 
HETATM    3  C   UNK N   1     -16.628  19.597  -6.655  0.00  0.00     0.099 A 
HETATM    4  C   UNK N   1     -15.916  19.637  -9.366  0.00  0.00     0.021 A 
HETATM    5  C   UNK N   1     -15.703  18.663  -7.158  0.00  0.00     0.098 A 
HETATM    6  C   UNK N   1     -15.353  18.691  -8.513  0.00  0.00     0.040 A 
ENDROOT
BRANCH   1   7
HETATM    7  C   UNK N   1     -17.421  21.573  -9.809  0.00  0.00     0.176 C 
HETATM    8  O   UNK N   1     -17.985  21.214 -10.832  0.00  0.00    -0.646 OA
BRANCH   7   9
HETATM    9  O   UNK N   1     -17.331  22.892  -9.521  0.00  0.00    -0.773 OA
HETATM   10  H   UNK N   1     -17.162  23.551 -10.207  0.00  0.00     0.167 HD
ENDBRANCH   7   9
ENDBRANCH   1   7
BRANCH   3  11
HETATM   11  O   UNK N   1     -16.981  19.592  -5.352  0.00  0.00    -0.358 OA
HETATM   12  H   UNK N   1     -17.699  20.145  -5.012  0.00  0.00     0.218 HD
ENDBRANCH   3  11
BRANCH   5  13
HETATM   13  O   UNK N   1     -15.153  17.742  -6.339  0.00  0.00    -0.358 OA
HETATM   14  H   UNK N   1     -15.217  16.794  -6.528  0.00  0.00     0.218 HD
ENDBRANCH   5  13
TORSDOF 4
ENDMDL
MODEL 9
REMARK VINA RESULT:      -4.8      1.373      4.080
REMARK  4 active torsions:
REMARK  status: ('A' for Active; 'I' for Inactive)
REMARK    1  A    between atoms: O_1  and  C_7 
REMARK    2  A    between atoms: O_2  and  C_9 
REMARK    3  A    between atoms: O_3  and  C_11 
REMARK    4  A    between atoms: C_5  and  C_11 
ROOT
HETATM    1  C   UNK N   1     -17.025  20.665  -8.770  0.00  0.00     0.040 A 
HETATM    2  C   UNK N   1     -16.017  19.715  -9.028  0.00  0.00     0.057 A 
HETATM    3  C   UNK N   1     -15.641  18.794  -8.038  0.00  0.00     0.099 A 
HETATM    4  C   UNK N   1     -17.646  20.680  -7.511  0.00  0.00     0.021 A 
HETATM    5  C   UNK N   1     -16.275  18.821  -6.781  0.00  0.00     0.098 A 
HETATM    6  C   UNK N   1     -17.276  19.768  -6.528  0.00  0.00     0.040 A 
ENDROOT
BRANCH   1   7
HETATM    7  C   UNK N   1     -17.440  21.648  -9.799  0.00  0.00     0.176 C 
HETATM    8  O   UNK N   1     -17.901  21.272 -10.867  0.00  0.00    -0.646 OA
BRANCH   7   9
HETATM    9  O   UNK N   1     -17.309  22.971  -9.554  0.00  0.00    -0.773 OA
HETATM   10  H   UNK N   1     -17.911  23.621  -9.940  0.00  0.00     0.167 HD
ENDBRANCH   7   9
ENDBRANCH   1   7
BRANCH   3  11
HETATM   11  O   UNK N   1     -14.674  17.892  -8.308  0.00  0.00    -0.358 OA
HETATM   12  H   UNK N   1     -14.851  16.941  -8.337  0.00  0.00     0.218 HD
ENDBRANCH   3  11
BRANCH   5  13
HETATM   13  O   UNK N   1     -15.921  17.941  -5.822  0.00  0.00    -0.358 OA
HETATM   14  H   UNK N   1     -15.061  17.497  -5.835  0.00  0.00     0.218 HD
ENDBRANCH   5  13
TORSDOF 4
ENDMDL
