MODEL 1
REMARK VINA RESULT:      -5.0      0.000      0.000
REMARK  4 active torsions:
REMARK  status: ('A' for Active; 'I' for Inactive)
REMARK    1  A    between atoms: O_1  and  C_5 
REMARK    2  A    between atoms: O_2  and  C_8 
REMARK    3  A    between atoms: O_3  and  C_11 
REMARK    4  A    between atoms: C_6  and  C_11 
ROOT
HETATM    1  C   UNK N   1     -16.881  20.976  -9.649  0.00  0.00     0.102 A 
HETATM    2  C   UNK N   1     -17.350  20.215  -7.382  0.00  0.00     0.040 A 
HETATM    3  C   UNK N   1     -17.582  21.113  -8.442  0.00  0.00     0.057 A 
HETATM    4  C   UNK N   1     -15.936  19.951  -9.801  0.00  0.00     0.099 A 
HETATM    5  C   UNK N   1     -16.408  19.188  -7.548  0.00  0.00     0.021 A 
HETATM    6  C   UNK N   1     -15.704  19.060  -8.746  0.00  0.00     0.040 A 
ENDROOT
BRANCH   2   7
HETATM    7  C   UNK N   1     -18.091  20.338  -6.102  0.00  0.00     0.176 C 
HETATM    8  O   UNK N   1     -19.171  19.786  -5.955  0.00  0.00    -0.646 OA
BRANCH   7   9
HETATM    9  O   UNK N   1     -17.565  21.061  -5.088  0.00  0.00    -0.773 OA
HETATM   10  H   UNK N   1     -18.126  21.457  -4.406  0.00  0.00     0.167 HD
ENDBRANCH   7   9
ENDBRANCH   2   7
BRANCH   1  11
HETATM   11  O   UNK N   1     -17.123  21.829 -10.668  0.00  0.00    -0.353 OA
HETATM   12  C   UNK N   1     -18.225  21.667 -11.479  0.00  0.00     0.210 C 
ENDBRANCH   1  11
BRANCH   4  13
HETATM   13  O   UNK N   1     -15.260  19.827 -10.961  0.00  0.00    -0.358 OA
HETATM   14  H   UNK N   1     -14.702  20.541 -11.303  0.00  0.00     0.218 HD
ENDBRANCH   4  13
TORSDOF 4
ENDMDL
MODEL 2
REMARK VINA RESULT:      -5.0      1.719      4.808
REMARK  4 active torsions:
REMARK  status: ('A' for Active; 'I' for Inactive)
REMARK    1  A    between atoms: O_1  and  C_5 
REMARK    2  A    between atoms: O_2  and  C_8 
REMARK    3  A    between atoms: O_3  and  C_11 
REMARK    4  A    between atoms: C_6  and  C_11 
ROOT
HETATM    1  C   UNK N   1     -16.743  20.062  -8.466  0.00  0.00     0.102 A 
HETATM    2  C   UNK N   1     -17.602  20.866 -10.601  0.00  0.00     0.040 A 
HETATM    3  C   UNK N   1     -16.776  19.993  -9.867  0.00  0.00     0.057 A 
HETATM    4  C   UNK N   1     -17.523  21.012  -7.791  0.00  0.00     0.099 A 
HETATM    5  C   UNK N   1     -18.384  21.807  -9.914  0.00  0.00     0.021 A 
HETATM    6  C   UNK N   1     -18.343  21.882  -8.521  0.00  0.00     0.040 A 
ENDROOT
BRANCH   2   7
HETATM    7  C   UNK N   1     -17.657  20.799 -12.082  0.00  0.00     0.176 C 
HETATM    8  O   UNK N   1     -18.040  21.760 -12.733  0.00  0.00    -0.646 OA
BRANCH   7   9
HETATM    9  O   UNK N   1     -17.275  19.669 -12.719  0.00  0.00    -0.773 OA
HETATM   10  H   UNK N   1     -16.647  19.052 -12.318  0.00  0.00     0.167 HD
ENDBRANCH   7   9
ENDBRANCH   2   7
BRANCH   1  11
HETATM   11  O   UNK N   1     -15.964  19.208  -7.769  0.00  0.00    -0.353 OA
HETATM   12  C   UNK N   1     -14.982  18.473  -8.397  0.00  0.00     0.210 C 
ENDBRANCH   1  11
BRANCH   4  13
HETATM   13  O   UNK N   1     -17.485  21.079  -6.445  0.00  0.00    -0.358 OA
HETATM   14  H   UNK N   1     -18.202  21.484  -5.936  0.00  0.00     0.218 HD
ENDBRANCH   4  13
TORSDOF 4
ENDMDL
MODEL 3
REMARK VINA RESULT:      -5.0      1.656      4.129
REMARK  4 active torsions:
REMARK  status: ('A' for Active; 'I' for Inactive)
REMARK    1  A    between atoms: O_1  and  C_5 
REMARK    2  A    between atoms: O_2  and  C_8 
REMARK    3  A    between atoms: O_3  and  C_11 
REMARK    4  A    between atoms: C_6  and  C_11 
ROOT
HETATM    1  C   UNK N   1     -16.717  19.523  -6.674  0.00  0.00     0.102 A 
HETATM    2  C   UNK N   1     -16.858  20.555  -8.878  0.00  0.00     0.040 A 
HETATM    3  C   UNK N   1     -17.276  20.479  -7.535  0.00  0.00     0.057 A 
HETATM    4  C   UNK N   1     -15.747  18.630  -7.150  0.00  0.00     0.099 A 
HETATM    5  C   UNK N   1     -15.881  19.660  -9.341  0.00  0.00     0.021 A 
HETATM    6  C   UNK N   1     -15.332  18.704  -8.486  0.00  0.00     0.040 A 
ENDROOT
BRANCH   2   7
HETATM    7  C   UNK N   1     -17.430  21.567  -9.800  0.00  0.00     0.176 C 
HETATM    8  O   UNK N   1     -18.007  21.221 -10.820  0.00  0.00    -0.646 OA
BRANCH   7   9
HETATM    9  O   UNK N   1     -17.318  22.882  -9.507  0.00  0.00    -0.773 OA
HETATM   10  H   UNK N   1     -16.594  23.418  -9.860  0.00  0.00     0.167 HD
ENDBRANCH   7   9
ENDBRANCH   2   7
BRANCH   1  11
HETATM   11  O   UNK N   1     -17.110  19.471  -5.383  0.00  0.00    -0.353 OA
HETATM   12  C   UNK N   1     -16.845  20.512  -4.520  0.00  0.00     0.210 C 
ENDBRANCH   1  11
BRANCH   4  13
HETATM   13  O   UNK N   1     -15.217  17.709  -6.321  0.00  0.00    -0.358 OA
HETATM   14  H   UNK N   1     -15.572  16.810  -6.265  0.00  0.00     0.218 HD
ENDBRANCH   4  13
TORSDOF 4
ENDMDL
MODEL 4
REMARK VINA RESULT:      -4.9     29.798     30.258
REMARK  4 active torsions:
REMARK  status: ('A' for Active; 'I' for Inactive)
REMARK    1  A    between atoms: O_1  and  C_5 
REMARK    2  A    between atoms: O_2  and  C_8 
REMARK    3  A    between atoms: O_3  and  C_11 
REMARK    4  A    between atoms: C_6  and  C_11 
ROOT
HETATM    1  C   UNK N   1     -36.816  -2.314  -6.526  0.00  0.00     0.102 A 
HETATM    2  C   UNK N   1     -37.686  -1.207  -4.537  0.00  0.00     0.040 A 
HETATM    3  C   UNK N   1     -37.655  -1.356  -5.937  0.00  0.00     0.057 A 
HETATM    4  C   UNK N   1     -35.995  -3.118  -5.723  0.00  0.00     0.099 A 
HETATM    5  C   UNK N   1     -36.865  -2.022  -3.742  0.00  0.00     0.021 A 
HETATM    6  C   UNK N   1     -36.024  -2.967  -4.331  0.00  0.00     0.040 A 
ENDROOT
BRANCH   2   7
HETATM    7  C   UNK N   1     -38.576  -0.206  -3.896  0.00  0.00     0.176 C 
HETATM    8  O   UNK N   1     -39.780  -0.401  -3.826  0.00  0.00    -0.646 OA
BRANCH   7   9
HETATM    9  O   UNK N   1     -38.050   0.927  -3.379  0.00  0.00    -0.773 OA
HETATM   10  H   UNK N   1     -38.119   1.773  -3.844  0.00  0.00     0.167 HD
ENDBRANCH   7   9
ENDBRANCH   2   7
BRANCH   1  11
HETATM   11  O   UNK N   1     -36.808  -2.465  -7.868  0.00  0.00    -0.353 OA
HETATM   12  C   UNK N   1     -37.870  -3.052  -8.520  0.00  0.00     0.210 C 
ENDBRANCH   1  11
BRANCH   4  13
HETATM   13  O   UNK N   1     -35.186  -4.033  -6.293  0.00  0.00    -0.358 OA
HETATM   14  H   UNK N   1     -34.723  -3.855  -7.125  0.00  0.00     0.218 HD
ENDBRANCH   4  13
TORSDOF 4
ENDMDL
MODEL 5
REMARK VINA RESULT:      -4.9      2.407      4.082
REMARK  4 active torsions:
REMARK  status: ('A' for Active; 'I' for Inactive)
REMARK    1  A    between atoms: O_1  and  C_5 
REMARK    2  A    between atoms: O_2  and  C_8 
REMARK    3  A    between atoms: O_3  and  C_11 
REMARK    4  A    between atoms: C_6  and  C_11 
ROOT
HETATM    1  C   UNK N   1     -18.712  22.041 -11.249  0.00  0.00     0.102 A 
HETATM    2  C   UNK N   1     -17.072  20.809  -9.934  0.00  0.00     0.040 A 
HETATM    3  C   UNK N   1     -17.626  21.156 -11.181  0.00  0.00     0.057 A 
HETATM    4  C   UNK N   1     -19.260  22.574 -10.073  0.00  0.00     0.099 A 
HETATM    5  C   UNK N   1     -17.623  21.353  -8.764  0.00  0.00     0.021 A 
HETATM    6  C   UNK N   1     -18.710  22.226  -8.833  0.00  0.00     0.040 A 
ENDROOT
BRANCH   2   7
HETATM    7  C   UNK N   1     -15.915  19.883  -9.844  0.00  0.00     0.176 C 
HETATM    8  O   UNK N   1     -15.727  19.221  -8.835  0.00  0.00    -0.646 OA
BRANCH   7   9
HETATM    9  O   UNK N   1     -15.065  19.766 -10.889  0.00  0.00    -0.773 OA
HETATM   10  H   UNK N   1     -15.388  19.720 -11.800  0.00  0.00     0.167 HD
ENDBRANCH   7   9
ENDBRANCH   2   7
BRANCH   1  11
HETATM   11  O   UNK N   1     -19.225  22.385 -12.450  0.00  0.00    -0.353 OA
HETATM   12  C   UNK N   1     -18.519  23.192 -13.315  0.00  0.00     0.210 C 
ENDBRANCH   1  11
BRANCH   4  13
HETATM   13  O   UNK N   1     -20.308  23.419 -10.142  0.00  0.00    -0.358 OA
HETATM   14  H   UNK N   1     -20.932  23.395 -10.882  0.00  0.00     0.218 HD
ENDBRANCH   4  13
TORSDOF 4
ENDMDL
MODEL 6
REMARK VINA RESULT:      -4.8     23.812     25.392
REMARK  4 active torsions:
REMARK  status: ('A' for Active; 'I' for Inactive)
REMARK    1  A    between atoms: O_1  and  C_5 
REMARK    2  A    between atoms: O_2  and  C_8 
REMARK    3  A    between atoms: O_3  and  C_11 
REMARK    4  A    between atoms: C_6  and  C_11 
ROOT
HETATM    1  C   UNK N   1     -30.326  40.307  -8.581  0.00  0.00     0.102 A 
HETATM    2  C   UNK N   1     -30.419  42.700  -9.033  0.00  0.00     0.040 A 
HETATM    3  C   UNK N   1     -30.121  41.388  -9.450  0.00  0.00     0.057 A 
HETATM    4  C   UNK N   1     -30.815  40.529  -7.286  0.00  0.00     0.099 A 
HETATM    5  C   UNK N   1     -30.916  42.910  -7.737  0.00  0.00     0.021 A 
HETATM    6  C   UNK N   1     -31.109  41.834  -6.870  0.00  0.00     0.040 A 
ENDROOT
BRANCH   2   7
HETATM    7  C   UNK N   1     -30.219  43.854  -9.943  0.00  0.00     0.176 C 
HETATM    8  O   UNK N   1     -30.080  44.982  -9.494  0.00  0.00    -0.646 OA
BRANCH   7   9
HETATM    9  O   UNK N   1     -30.185  43.657 -11.281  0.00  0.00    -0.773 OA
HETATM   10  H   UNK N   1     -30.636  44.257 -11.891  0.00  0.00     0.167 HD
ENDBRANCH   7   9
ENDBRANCH   2   7
BRANCH   1  11
HETATM   11  O   UNK N   1     -30.057  39.050  -8.996  0.00  0.00    -0.353 OA
HETATM   12  C   UNK N   1     -30.457  38.616 -10.241  0.00  0.00     0.210 C 
ENDBRANCH   1  11
BRANCH   4  13
HETATM   13  O   UNK N   1     -31.005  39.487  -6.451  0.00  0.00    -0.358 OA
HETATM   14  H   UNK N   1     -30.315  39.195  -5.838  0.00  0.00     0.218 HD
ENDBRANCH   4  13
TORSDOF 4
ENDMDL
MODEL 7
REMARK VINA RESULT:      -4.8      1.984      2.832
REMARK  4 active torsions:
REMARK  status: ('A' for Active; 'I' for Inactive)
REMARK    1  A    between atoms: O_1  and  C_5 
REMARK    2  A    between atoms: O_2  and  C_8 
REMARK    3  A    between atoms: O_3  and  C_11 
REMARK    4  A    between atoms: C_6  and  C_11 
ROOT
HETATM    1  C   UNK N   1     -17.602  21.213  -8.621  0.00  0.00     0.102 A 
HETATM    2  C   UNK N   1     -16.155  19.363  -7.971  0.00  0.00     0.040 A 
HETATM    3  C   UNK N   1     -17.116  20.337  -7.639  0.00  0.00     0.057 A 
HETATM    4  C   UNK N   1     -17.123  21.130  -9.936  0.00  0.00     0.099 A 
HETATM    5  C   UNK N   1     -15.687  19.284  -9.292  0.00  0.00     0.021 A 
HETATM    6  C   UNK N   1     -16.165  20.162 -10.265  0.00  0.00     0.040 A 
ENDROOT
BRANCH   2   7
HETATM    7  C   UNK N   1     -15.638  18.421  -6.947  0.00  0.00     0.176 C 
HETATM    8  O   UNK N   1     -16.375  17.986  -6.075  0.00  0.00    -0.646 OA
BRANCH   7   9
HETATM    9  O   UNK N   1     -14.342  18.036  -6.982  0.00  0.00    -0.773 OA
HETATM   10  H   UNK N   1     -13.708  18.451  -7.583  0.00  0.00     0.167 HD
ENDBRANCH   7   9
ENDBRANCH   2   7
BRANCH   1  11
HETATM   11  O   UNK N   1     -18.539  22.131  -8.299  0.00  0.00    -0.353 OA
HETATM   12  C   UNK N   1     -19.567  21.819  -7.436  0.00  0.00     0.210 C 
ENDBRANCH   1  11
BRANCH   4  13
HETATM   13  O   UNK N   1     -17.588  21.977 -10.876  0.00  0.00    -0.358 OA
HETATM   14  H   UNK N   1     -17.039  22.690 -11.235  0.00  0.00     0.218 HD
ENDBRANCH   4  13
TORSDOF 4
ENDMDL
MODEL 8
REMARK VINA RESULT:      -4.6     12.133     13.247
REMARK  4 active torsions:
REMARK  status: ('A' for Active; 'I' for Inactive)
REMARK    1  A    between atoms: O_1  and  C_5 
REMARK    2  A    between atoms: O_2  and  C_8 
REMARK    3  A    between atoms: O_3  and  C_11 
REMARK    4  A    between atoms: C_6  and  C_11 
ROOT
HETATM    1  C   UNK N   1     -29.024  18.951  -9.755  0.00  0.00     0.102 A 
HETATM    2  C   UNK N   1     -30.888  19.878  -8.488  0.00  0.00     0.040 A 
HETATM    3  C   UNK N   1     -29.812  20.049  -9.381  0.00  0.00     0.057 A 
HETATM    4  C   UNK N   1     -29.295  17.679  -9.231  0.00  0.00     0.099 A 
HETATM    5  C   UNK N   1     -31.155  18.599  -7.975  0.00  0.00     0.021 A 
HETATM    6  C   UNK N   1     -30.364  17.509  -8.341  0.00  0.00     0.040 A 
ENDROOT
BRANCH   2   7
HETATM    7  C   UNK N   1     -31.739  21.026  -8.090  0.00  0.00     0.176 C 
HETATM    8  O   UNK N   1     -31.241  22.117  -7.856  0.00  0.00    -0.646 OA
BRANCH   7   9
HETATM    9  O   UNK N   1     -33.079  20.867  -7.991  0.00  0.00    -0.773 OA
HETATM   10  H   UNK N   1     -33.550  21.058  -7.168  0.00  0.00     0.167 HD
ENDBRANCH   7   9
ENDBRANCH   2   7
BRANCH   1  11
HETATM   11  O   UNK N   1     -28.007  19.120 -10.627  0.00  0.00    -0.353 OA
HETATM   12  C   UNK N   1     -27.620  20.380 -11.027  0.00  0.00     0.210 C 
ENDBRANCH   1  11
BRANCH   4  13
HETATM   13  O   UNK N   1     -28.531  16.627  -9.588  0.00  0.00    -0.358 OA
HETATM   14  H   UNK N   1     -28.569  15.786  -9.111  0.00  0.00     0.218 HD
ENDBRANCH   4  13
TORSDOF 4
ENDMDL
MODEL 9
REMARK VINA RESULT:      -4.5     10.857     12.239
REMARK  4 active torsions:
REMARK  status: ('A' for Active; 'I' for Inactive)
REMARK    1  A    between atoms: O_1  and  C_5 
REMARK    2  A    between atoms: O_2  and  C_8 
REMARK    3  A    between atoms: O_3  and  C_11 
REMARK    4  A    between atoms: C_6  and  C_11 
ROOT
HETATM    1  C   UNK N   1     -29.240  18.669  -9.065  0.00  0.00     0.102 A 
HETATM    2  C   UNK N   1     -28.262  20.694 -10.004  0.00  0.00     0.040 A 
HETATM    3  C   UNK N   1     -29.234  20.065  -9.203  0.00  0.00     0.057 A 
HETATM    4  C   UNK N   1     -28.285  17.892  -9.736  0.00  0.00     0.099 A 
HETATM    5  C   UNK N   1     -27.305  19.907 -10.665  0.00  0.00     0.021 A 
HETATM    6  C   UNK N   1     -27.319  18.518 -10.535  0.00  0.00     0.040 A 
ENDROOT
BRANCH   2   7
HETATM    7  C   UNK N   1     -28.233  22.170 -10.152  0.00  0.00     0.176 C 
HETATM    8  O   UNK N   1     -27.397  22.837  -9.561  0.00  0.00    -0.646 OA
BRANCH   7   9
HETATM    9  O   UNK N   1     -29.136  22.783 -10.951  0.00  0.00    -0.773 OA
HETATM   10  H   UNK N   1     -29.083  22.717 -11.914  0.00  0.00     0.167 HD
ENDBRANCH   7   9
ENDBRANCH   2   7
BRANCH   1  11
HETATM   11  O   UNK N   1     -30.164  18.075  -8.279  0.00  0.00    -0.353 OA
HETATM   12  C   UNK N   1     -31.448  18.568  -8.201  0.00  0.00     0.210 C 
ENDBRANCH   1  11
BRANCH   4  13
HETATM   13  O   UNK N   1     -28.298  16.550  -9.606  0.00  0.00    -0.358 OA
HETATM   14  H   UNK N   1     -28.253  15.965 -10.376  0.00  0.00     0.218 HD
ENDBRANCH   4  13
TORSDOF 4
ENDMDL
