MODEL 1
REMARK VINA RESULT:      -6.3      0.000      0.000
REMARK  6 active torsions:
REMARK  status: ('A' for Active; 'I' for Inactive)
REMARK    1  A    between atoms: O_2  and  C_16 
REMARK    2  A    between atoms: N_3  and  C_10 
REMARK    3  A    between atoms: N_8  and  C_17 
REMARK    4  A    between atoms: C_10  and  C_13 
REMARK    5  A    between atoms: C_11  and  C_12 
REMARK    6  A    between atoms: C_12  and  C_16 
ROOT
HETATM    1  N   UNK N   1     -38.200  -0.016  -5.643  0.00  0.00    -0.332 N 
ATOM      2  HN  UNK N   1     -38.693   0.613  -6.276  1.00  0.00     0.168 HD
HETATM    3  N   UNK N   1     -37.679  -0.664  -3.444  0.00  0.00    -0.355 N 
ATOM      4  HN  UNK N   1     -37.775  -0.519  -2.439  1.00  0.00     0.166 HD
HETATM    5  C   UNK N   1     -36.755  -1.892  -5.280  0.00  0.00     0.019 A 
HETATM    6  C   UNK N   1     -37.435  -1.014  -6.162  0.00  0.00     0.109 A 
HETATM    7  C   UNK N   1     -36.906  -1.685  -3.903  0.00  0.00     0.102 A 
HETATM    8  C   UNK N   1     -38.324   0.163  -4.305  0.00  0.00     0.078 A 
HETATM    9  C   UNK N   1     -39.181   1.268  -3.780  0.00  0.00     0.089 C 
ENDROOT
BRANCH   5  10
HETATM   10  C   UNK N   1     -35.888  -3.039  -5.764  0.00  0.00     0.172 C 
BRANCH  10  11
HETATM   11  N   UNK N   1     -36.708  -4.163  -6.243  0.00  0.00    -0.349 N 
HETATM   12  C   UNK N   1     -36.661  -4.709  -7.522  0.00  0.00     0.021 A 
HETATM   13  C   UNK N   1     -37.591  -5.753  -7.734  0.00  0.00     0.008 A 
HETATM   14  C   UNK N   1     -35.744  -4.180  -8.592  0.00  0.00     0.069 C 
HETATM   15  S   UNK N   1     -38.425  -5.923  -6.318  0.00  0.00    -0.087 SA
HETATM   16  C   UNK N   1     -37.654  -4.750  -5.455  0.00  0.00     0.141 A 
BRANCH  13  17
HETATM   17  C   UNK N   1     -37.864  -6.554  -8.975  0.00  0.00     0.074 C 
BRANCH  17  18
HETATM   18  C   UNK N   1     -38.772  -5.765  -9.921  0.00  0.00     0.169 C 
BRANCH  18  19
HETATM   19  O   UNK N   1     -39.864  -6.549 -10.316  0.00  0.00    -0.401 OA
HETATM   20  H   UNK N   1     -40.197  -7.005  -9.501  0.00  0.00     0.209 HD
ENDBRANCH  18  19
ENDBRANCH  17  18
ENDBRANCH  13  17
ENDBRANCH  10  11
ENDBRANCH   5  10
BRANCH   6  21
HETATM   21  N   UNK N   1     -37.377  -1.149  -7.574  0.00  0.00    -0.385 N 
HETATM   22  H   UNK N   1     -38.197  -1.017  -8.180  0.00  0.00     0.157 HD
HETATM   23  H   UNK N   1     -36.475  -1.346  -8.029  0.00  0.00     0.157 HD
ENDBRANCH   6  21
TORSDOF 6
ENDMDL
MODEL 2
REMARK VINA RESULT:      -5.7      3.879      7.194
REMARK  6 active torsions:
REMARK  status: ('A' for Active; 'I' for Inactive)
REMARK    1  A    between atoms: O_2  and  C_16 
REMARK    2  A    between atoms: N_3  and  C_10 
REMARK    3  A    between atoms: N_8  and  C_17 
REMARK    4  A    between atoms: C_10  and  C_13 
REMARK    5  A    between atoms: C_11  and  C_12 
REMARK    6  A    between atoms: C_12  and  C_16 
ROOT
HETATM    1  N   UNK N   1     -36.598  -7.437 -11.053  0.00  0.00    -0.332 N 
ATOM      2  HN  UNK N   1     -36.790  -8.424 -10.879  1.00  0.00     0.168 HD
HETATM    3  N   UNK N   1     -35.375  -5.794 -12.206  0.00  0.00    -0.355 N 
ATOM      4  HN  UNK N   1     -34.654  -5.550 -12.885  1.00  0.00     0.166 HD
HETATM    5  C   UNK N   1     -37.038  -5.122 -10.620  0.00  0.00     0.019 A 
HETATM    6  C   UNK N   1     -37.303  -6.494 -10.372  0.00  0.00     0.109 A 
HETATM    7  C   UNK N   1     -36.052  -4.805 -11.563  0.00  0.00     0.102 A 
HETATM    8  C   UNK N   1     -35.646  -7.100 -11.957  0.00  0.00     0.078 A 
HETATM    9  C   UNK N   1     -34.902  -8.171 -12.686  0.00  0.00     0.089 C 
ENDROOT
BRANCH   5  10
HETATM   10  C   UNK N   1     -37.779  -4.000  -9.919  0.00  0.00     0.172 C 
BRANCH  10  11
HETATM   11  N   UNK N   1     -37.265  -3.791  -8.555  0.00  0.00    -0.349 N 
HETATM   12  C   UNK N   1     -38.038  -3.750  -7.399  0.00  0.00     0.021 A 
HETATM   13  C   UNK N   1     -37.298  -3.488  -6.223  0.00  0.00     0.008 A 
HETATM   14  C   UNK N   1     -39.536  -3.908  -7.423  0.00  0.00     0.069 C 
HETATM   15  S   UNK N   1     -35.726  -3.308  -6.698  0.00  0.00    -0.087 SA
HETATM   16  C   UNK N   1     -35.943  -3.561  -8.312  0.00  0.00     0.141 A 
BRANCH  13  17
HETATM   17  C   UNK N   1     -37.774  -3.333  -4.807  0.00  0.00     0.074 C 
BRANCH  17  18
HETATM   18  C   UNK N   1     -36.599  -2.991  -3.891  0.00  0.00     0.169 C 
BRANCH  18  19
HETATM   19  O   UNK N   1     -36.606  -1.625  -3.576  0.00  0.00    -0.401 OA
HETATM   20  H   UNK N   1     -37.529  -1.301  -3.740  0.00  0.00     0.209 HD
ENDBRANCH  18  19
ENDBRANCH  17  18
ENDBRANCH  13  17
ENDBRANCH  10  11
ENDBRANCH   5  10
BRANCH   6  21
HETATM   21  N   UNK N   1     -38.300  -6.930  -9.460  0.00  0.00    -0.385 N 
HETATM   22  H   UNK N   1     -39.187  -6.429  -9.324  0.00  0.00     0.157 HD
HETATM   23  H   UNK N   1     -38.162  -7.806  -8.938  0.00  0.00     0.157 HD
ENDBRANCH   6  21
TORSDOF 6
ENDMDL
MODEL 3
REMARK VINA RESULT:      -5.7      1.593      2.206
REMARK  6 active torsions:
REMARK  status: ('A' for Active; 'I' for Inactive)
REMARK    1  A    between atoms: O_2  and  C_16 
REMARK    2  A    between atoms: N_3  and  C_10 
REMARK    3  A    between atoms: N_8  and  C_17 
REMARK    4  A    between atoms: C_10  and  C_13 
REMARK    5  A    between atoms: C_11  and  C_12 
REMARK    6  A    between atoms: C_12  and  C_16 
ROOT
HETATM    1  N   UNK N   1     -39.078  -0.805  -3.477  0.00  0.00    -0.332 N 
ATOM      2  HN  UNK N   1     -39.630  -0.679  -2.628  1.00  0.00     0.168 HD
HETATM    3  N   UNK N   1     -38.106   0.121  -5.407  0.00  0.00    -0.355 N 
ATOM      4  HN  UNK N   1     -37.934   0.931  -6.002  1.00  0.00     0.166 HD
HETATM    5  C   UNK N   1     -37.830  -2.215  -4.958  0.00  0.00     0.019 A 
HETATM    6  C   UNK N   1     -38.601  -2.043  -3.780  0.00  0.00     0.109 A 
HETATM    7  C   UNK N   1     -37.595  -1.090  -5.759  0.00  0.00     0.102 A 
HETATM    8  C   UNK N   1     -38.839   0.266  -4.274  0.00  0.00     0.078 A 
HETATM    9  C   UNK N   1     -39.377   1.607  -3.896  0.00  0.00     0.089 C 
ENDROOT
BRANCH   5  10
HETATM   10  C   UNK N   1     -37.247  -3.552  -5.374  0.00  0.00     0.172 C 
BRANCH  10  11
HETATM   11  N   UNK N   1     -37.933  -4.087  -6.562  0.00  0.00    -0.349 N 
HETATM   12  C   UNK N   1     -37.377  -4.200  -7.832  0.00  0.00     0.021 A 
HETATM   13  C   UNK N   1     -38.270  -4.703  -8.806  0.00  0.00     0.008 A 
HETATM   14  C   UNK N   1     -35.970  -3.760  -8.139  0.00  0.00     0.069 C 
HETATM   15  S   UNK N   1     -39.704  -4.963  -8.027  0.00  0.00    -0.087 SA
HETATM   16  C   UNK N   1     -39.238  -4.483  -6.522  0.00  0.00     0.141 A 
BRANCH  13  17
HETATM   17  C   UNK N   1     -38.054  -4.931 -10.274  0.00  0.00     0.074 C 
BRANCH  17  18
HETATM   18  C   UNK N   1     -38.612  -3.754 -11.077  0.00  0.00     0.169 C 
BRANCH  18  19
HETATM   19  O   UNK N   1     -39.864  -4.079 -11.615  0.00  0.00    -0.401 OA
HETATM   20  H   UNK N   1     -40.539  -3.574 -11.091  0.00  0.00     0.209 HD
ENDBRANCH  18  19
ENDBRANCH  17  18
ENDBRANCH  13  17
ENDBRANCH  10  11
ENDBRANCH   5  10
BRANCH   6  21
HETATM   21  N   UNK N   1     -38.876  -3.106  -2.881  0.00  0.00    -0.385 N 
HETATM   22  H   UNK N   1     -38.989  -4.080  -3.188  0.00  0.00     0.157 HD
HETATM   23  H   UNK N   1     -38.924  -2.916  -1.870  0.00  0.00     0.157 HD
ENDBRANCH   6  21
TORSDOF 6
ENDMDL
MODEL 4
REMARK VINA RESULT:      -5.6     21.351     23.096
REMARK  6 active torsions:
REMARK  status: ('A' for Active; 'I' for Inactive)
REMARK    1  A    between atoms: O_2  and  C_16 
REMARK    2  A    between atoms: N_3  and  C_10 
REMARK    3  A    between atoms: N_8  and  C_17 
REMARK    4  A    between atoms: C_10  and  C_13 
REMARK    5  A    between atoms: C_11  and  C_12 
REMARK    6  A    between atoms: C_12  and  C_16 
ROOT
HETATM    1  N   UNK N   1     -21.697  11.375   2.640  0.00  0.00    -0.332 N 
ATOM      2  HN  UNK N   1     -21.312  11.153   3.559  1.00  0.00     0.168 HD
HETATM    3  N   UNK N   1     -21.384  11.590   0.320  0.00  0.00    -0.355 N 
ATOM      4  HN  UNK N   1     -20.769  11.536  -0.492  1.00  0.00     0.166 HD
HETATM    5  C   UNK N   1     -23.540  12.038   1.260  0.00  0.00     0.019 A 
HETATM    6  C   UNK N   1     -23.005  11.736   2.539  0.00  0.00     0.109 A 
HETATM    7  C   UNK N   1     -22.685  11.949   0.154  0.00  0.00     0.102 A 
HETATM    8  C   UNK N   1     -20.892  11.301   1.552  0.00  0.00     0.078 A 
HETATM    9  C   UNK N   1     -19.464  10.893   1.711  0.00  0.00     0.089 C 
ENDROOT
BRANCH   5  10
HETATM   10  C   UNK N   1     -24.986  12.440   1.045  0.00  0.00     0.172 C 
BRANCH  10  11
HETATM   11  N   UNK N   1     -25.084  13.762   0.405  0.00  0.00    -0.349 N 
HETATM   12  C   UNK N   1     -25.691  14.023  -0.819  0.00  0.00     0.021 A 
HETATM   13  C   UNK N   1     -25.603  15.374  -1.227  0.00  0.00     0.008 A 
HETATM   14  C   UNK N   1     -26.322  12.941  -1.654  0.00  0.00     0.069 C 
HETATM   15  S   UNK N   1     -24.761  16.159  -0.041  0.00  0.00    -0.087 SA
HETATM   16  C   UNK N   1     -24.520  14.873   0.960  0.00  0.00     0.141 A 
BRANCH  13  17
HETATM   17  C   UNK N   1     -26.097  16.028  -2.484  0.00  0.00     0.074 C 
BRANCH  17  18
HETATM   18  C   UNK N   1     -24.955  16.156  -3.494  0.00  0.00     0.169 C 
BRANCH  18  19
HETATM   19  O   UNK N   1     -25.402  16.794  -4.659  0.00  0.00    -0.401 OA
HETATM   20  H   UNK N   1     -25.349  16.123  -5.389  0.00  0.00     0.209 HD
ENDBRANCH  18  19
ENDBRANCH  17  18
ENDBRANCH  13  17
ENDBRANCH  10  11
ENDBRANCH   5  10
BRANCH   6  21
HETATM   21  N   UNK N   1     -23.787  11.765   3.723  0.00  0.00    -0.385 N 
HETATM   22  H   UNK N   1     -24.739  11.381   3.771  0.00  0.00     0.157 HD
HETATM   23  H   UNK N   1     -23.381  12.144   4.590  0.00  0.00     0.157 HD
ENDBRANCH   6  21
TORSDOF 6
ENDMDL
MODEL 5
REMARK VINA RESULT:      -5.6      1.681      2.113
REMARK  6 active torsions:
REMARK  status: ('A' for Active; 'I' for Inactive)
REMARK    1  A    between atoms: O_2  and  C_16 
REMARK    2  A    between atoms: N_3  and  C_10 
REMARK    3  A    between atoms: N_8  and  C_17 
REMARK    4  A    between atoms: C_10  and  C_13 
REMARK    5  A    between atoms: C_11  and  C_12 
REMARK    6  A    between atoms: C_12  and  C_16 
ROOT
HETATM    1  N   UNK N   1     -39.778  -0.712  -4.371  0.00  0.00    -0.332 N 
ATOM      2  HN  UNK N   1     -40.763  -0.544  -4.575  1.00  0.00     0.168 HD
HETATM    3  N   UNK N   1     -37.700   0.112  -3.643  0.00  0.00    -0.355 N 
ATOM      4  HN  UNK N   1     -37.131   0.891  -3.311  1.00  0.00     0.166 HD
HETATM    5  C   UNK N   1     -37.896  -2.191  -4.265  0.00  0.00     0.019 A 
HETATM    6  C   UNK N   1     -39.265  -1.959  -4.555  0.00  0.00     0.109 A 
HETATM    7  C   UNK N   1     -37.132  -1.113  -3.800  0.00  0.00     0.102 A 
HETATM    8  C   UNK N   1     -39.013   0.314  -3.923  0.00  0.00     0.078 A 
HETATM    9  C   UNK N   1     -39.621   1.664  -3.729  0.00  0.00     0.089 C 
ENDROOT
BRANCH   5  10
HETATM   10  C   UNK N   1     -37.238  -3.548  -4.428  0.00  0.00     0.172 C 
BRANCH  10  11
HETATM   11  N   UNK N   1     -36.904  -3.813  -5.837  0.00  0.00    -0.349 N 
HETATM   12  C   UNK N   1     -37.369  -4.887  -6.588  0.00  0.00     0.021 A 
HETATM   13  C   UNK N   1     -36.854  -4.932  -7.905  0.00  0.00     0.008 A 
HETATM   14  C   UNK N   1     -38.285  -5.936  -6.016  0.00  0.00     0.069 C 
HETATM   15  S   UNK N   1     -35.839  -3.636  -8.047  0.00  0.00    -0.087 SA
HETATM   16  C   UNK N   1     -36.035  -3.023  -6.531  0.00  0.00     0.141 A 
BRANCH  13  17
HETATM   17  C   UNK N   1     -37.089  -5.943  -8.990  0.00  0.00     0.074 C 
BRANCH  17  18
HETATM   18  C   UNK N   1     -38.128  -5.418  -9.982  0.00  0.00     0.169 C 
BRANCH  18  19
HETATM   19  O   UNK N   1     -39.046  -6.426 -10.307  0.00  0.00    -0.401 OA
HETATM   20  H   UNK N   1     -38.533  -7.273 -10.360  0.00  0.00     0.209 HD
ENDBRANCH  18  19
ENDBRANCH  17  18
ENDBRANCH  13  17
ENDBRANCH  10  11
ENDBRANCH   5  10
BRANCH   6  21
HETATM   21  N   UNK N   1     -40.139  -2.984  -5.003  0.00  0.00    -0.385 N 
HETATM   22  H   UNK N   1     -41.161  -2.919  -4.921  0.00  0.00     0.157 HD
HETATM   23  H   UNK N   1     -39.750  -3.815  -5.469  0.00  0.00     0.157 HD
ENDBRANCH   6  21
TORSDOF 6
ENDMDL
MODEL 6
REMARK VINA RESULT:      -5.5     32.579     33.951
REMARK  6 active torsions:
REMARK  status: ('A' for Active; 'I' for Inactive)
REMARK    1  A    between atoms: O_2  and  C_16 
REMARK    2  A    between atoms: N_3  and  C_10 
REMARK    3  A    between atoms: N_8  and  C_17 
REMARK    4  A    between atoms: C_10  and  C_13 
REMARK    5  A    between atoms: C_11  and  C_12 
REMARK    6  A    between atoms: C_12  and  C_16 
ROOT
HETATM    1  N   UNK N   1     -17.500  22.683 -14.898  0.00  0.00    -0.332 N 
ATOM      2  HN  UNK N   1     -16.678  22.096 -15.040  1.00  0.00     0.168 HD
HETATM    3  N   UNK N   1     -19.378  23.243 -13.600  0.00  0.00    -0.355 N 
ATOM      4  HN  UNK N   1     -19.962  23.075 -12.780  1.00  0.00     0.166 HD
HETATM    5  C   UNK N   1     -18.926  24.474 -15.602  0.00  0.00     0.019 A 
HETATM    6  C   UNK N   1     -17.786  23.656 -15.805  0.00  0.00     0.109 A 
HETATM    7  C   UNK N   1     -19.711  24.236 -14.466  0.00  0.00     0.102 A 
HETATM    8  C   UNK N   1     -18.281  22.472 -13.809  0.00  0.00     0.078 A 
HETATM    9  C   UNK N   1     -17.924  21.397 -12.837  0.00  0.00     0.089 C 
ENDROOT
BRANCH   5  10
HETATM   10  C   UNK N   1     -19.320  25.590 -16.552  0.00  0.00     0.172 C 
BRANCH  10  11
HETATM   11  N   UNK N   1     -20.372  25.152 -17.484  0.00  0.00    -0.349 N 
HETATM   12  C   UNK N   1     -21.730  25.419 -17.350  0.00  0.00     0.021 A 
HETATM   13  C   UNK N   1     -22.531  24.840 -18.362  0.00  0.00     0.008 A 
HETATM   14  C   UNK N   1     -22.289  26.200 -16.190  0.00  0.00     0.069 C 
HETATM   15  S   UNK N   1     -21.496  24.018 -19.354  0.00  0.00    -0.087 SA
HETATM   16  C   UNK N   1     -20.093  24.375 -18.569  0.00  0.00     0.141 A 
BRANCH  13  17
HETATM   17  C   UNK N   1     -24.022  24.872 -18.537  0.00  0.00     0.074 C 
BRANCH  17  18
HETATM   18  C   UNK N   1     -24.685  23.874 -17.587  0.00  0.00     0.169 C 
BRANCH  18  19
HETATM   19  O   UNK N   1     -24.279  22.567 -17.888  0.00  0.00    -0.401 OA
HETATM   20  H   UNK N   1     -24.486  22.014 -17.091  0.00  0.00     0.209 HD
ENDBRANCH  18  19
ENDBRANCH  17  18
ENDBRANCH  13  17
ENDBRANCH  10  11
ENDBRANCH   5  10
BRANCH   6  21
HETATM   21  N   UNK N   1     -16.904  23.827 -16.904  0.00  0.00    -0.385 N 
HETATM   22  H   UNK N   1     -15.897  23.633 -16.846  0.00  0.00     0.157 HD
HETATM   23  H   UNK N   1     -17.281  24.117 -17.817  0.00  0.00     0.157 HD
ENDBRANCH   6  21
TORSDOF 6
ENDMDL
MODEL 7
REMARK VINA RESULT:      -5.5     45.207     48.332
REMARK  6 active torsions:
REMARK  status: ('A' for Active; 'I' for Inactive)
REMARK    1  A    between atoms: O_2  and  C_16 
REMARK    2  A    between atoms: N_3  and  C_10 
REMARK    3  A    between atoms: N_8  and  C_17 
REMARK    4  A    between atoms: C_10  and  C_13 
REMARK    5  A    between atoms: C_11  and  C_12 
REMARK    6  A    between atoms: C_12  and  C_16 
ROOT
HETATM    1  N   UNK N   1     -30.328  41.383  -8.580  0.00  0.00    -0.332 N 
ATOM      2  HN  UNK N   1     -29.916  40.729  -9.247  1.00  0.00     0.168 HD
HETATM    3  N   UNK N   1     -31.380  41.759  -6.512  0.00  0.00    -0.355 N 
ATOM      4  HN  UNK N   1     -31.759  41.391  -5.639  1.00  0.00     0.166 HD
HETATM    5  C   UNK N   1     -30.925  43.616  -7.952  0.00  0.00     0.019 A 
HETATM    6  C   UNK N   1     -30.358  42.709  -8.883  0.00  0.00     0.109 A 
HETATM    7  C   UNK N   1     -31.432  43.096  -6.754  0.00  0.00     0.102 A 
HETATM    8  C   UNK N   1     -30.830  40.907  -7.414  0.00  0.00     0.078 A 
HETATM    9  C   UNK N   1     -30.768  39.443  -7.121  0.00  0.00     0.089 C 
ENDROOT
BRANCH   5  10
HETATM   10  C   UNK N   1     -30.995  45.111  -8.196  0.00  0.00     0.172 C 
BRANCH  10  11
HETATM   11  N   UNK N   1     -32.351  45.629  -7.955  0.00  0.00    -0.349 N 
HETATM   12  C   UNK N   1     -32.674  46.680  -7.103  0.00  0.00     0.021 A 
HETATM   13  C   UNK N   1     -34.061  46.945  -7.019  0.00  0.00     0.008 A 
HETATM   14  C   UNK N   1     -31.636  47.417  -6.300  0.00  0.00     0.069 C 
HETATM   15  S   UNK N   1     -34.802  45.842  -8.002  0.00  0.00    -0.087 SA
HETATM   16  C   UNK N   1     -33.450  45.063  -8.532  0.00  0.00     0.141 A 
BRANCH  13  17
HETATM   17  C   UNK N   1     -34.793  47.962  -6.191  0.00  0.00     0.074 C 
BRANCH  17  18
HETATM   18  C   UNK N   1     -35.308  47.319  -4.902  0.00  0.00     0.169 C 
BRANCH  18  19
HETATM   19  O   UNK N   1     -34.297  47.290  -3.932  0.00  0.00    -0.401 OA
HETATM   20  H   UNK N   1     -33.493  47.699  -4.347  0.00  0.00     0.209 HD
ENDBRANCH  18  19
ENDBRANCH  17  18
ENDBRANCH  13  17
ENDBRANCH  10  11
ENDBRANCH   5  10
BRANCH   6  21
HETATM   21  N   UNK N   1     -29.789  43.128 -10.114  0.00  0.00    -0.385 N 
HETATM   22  H   UNK N   1     -30.331  43.194 -10.984  0.00  0.00     0.157 HD
HETATM   23  H   UNK N   1     -28.803  43.423 -10.143  0.00  0.00     0.157 HD
ENDBRANCH   6  21
TORSDOF 6
ENDMDL
MODEL 8
REMARK VINA RESULT:      -5.3     21.255     22.971
REMARK  6 active torsions:
REMARK  status: ('A' for Active; 'I' for Inactive)
REMARK    1  A    between atoms: O_2  and  C_16 
REMARK    2  A    between atoms: N_3  and  C_10 
REMARK    3  A    between atoms: N_8  and  C_17 
REMARK    4  A    between atoms: C_10  and  C_13 
REMARK    5  A    between atoms: C_11  and  C_12 
REMARK    6  A    between atoms: C_12  and  C_16 
ROOT
HETATM    1  N   UNK N   1     -25.265  12.230   0.435  0.00  0.00    -0.332 N 
ATOM      2  HN  UNK N   1     -26.172  11.999   0.841  1.00  0.00     0.168 HD
HETATM    3  N   UNK N   1     -24.011  12.975  -1.408  0.00  0.00    -0.355 N 
ATOM      4  HN  UNK N   1     -23.978  13.294  -2.376  1.00  0.00     0.166 HD
HETATM    5  C   UNK N   1     -22.885  12.425   0.631  0.00  0.00     0.019 A 
HETATM    6  C   UNK N   1     -24.145  12.098   1.196  0.00  0.00     0.109 A 
HETATM    7  C   UNK N   1     -22.858  12.871  -0.696  0.00  0.00     0.102 A 
HETATM    8  C   UNK N   1     -25.208  12.661  -0.849  0.00  0.00     0.078 A 
HETATM    9  C   UNK N   1     -26.465  12.797  -1.643  0.00  0.00     0.089 C 
ENDROOT
BRANCH   5  10
HETATM   10  C   UNK N   1     -21.584  12.319   1.403  0.00  0.00     0.172 C 
BRANCH  10  11
HETATM   11  N   UNK N   1     -20.896  11.049   1.119  0.00  0.00    -0.349 N 
HETATM   12  C   UNK N   1     -19.660  10.670   1.631  0.00  0.00     0.021 A 
HETATM   13  C   UNK N   1     -19.203   9.416   1.159  0.00  0.00     0.008 A 
HETATM   14  C   UNK N   1     -18.861  11.553   2.553  0.00  0.00     0.069 C 
HETATM   15  S   UNK N   1     -20.364   8.865   0.120  0.00  0.00    -0.087 SA
HETATM   16  C   UNK N   1     -21.412  10.129   0.255  0.00  0.00     0.141 A 
BRANCH  13  17
HETATM   17  C   UNK N   1     -17.920   8.694   1.451  0.00  0.00     0.074 C 
BRANCH  17  18
HETATM   18  C   UNK N   1     -18.071   7.840   2.711  0.00  0.00     0.169 C 
BRANCH  18  19
HETATM   19  O   UNK N   1     -16.991   6.956   2.835  0.00  0.00    -0.401 OA
HETATM   20  H   UNK N   1     -16.188   7.512   3.011  0.00  0.00     0.209 HD
ENDBRANCH  18  19
ENDBRANCH  17  18
ENDBRANCH  13  17
ENDBRANCH  10  11
ENDBRANCH   5  10
BRANCH   6  21
HETATM   21  N   UNK N   1     -24.294  11.664   2.539  0.00  0.00    -0.385 N 
HETATM   22  H   UNK N   1     -24.784  12.218   3.252  0.00  0.00     0.157 HD
HETATM   23  H   UNK N   1     -23.938  10.738   2.817  0.00  0.00     0.157 HD
ENDBRANCH   6  21
TORSDOF 6
ENDMDL
MODEL 9
REMARK VINA RESULT:      -5.3     45.254     48.282
REMARK  6 active torsions:
REMARK  status: ('A' for Active; 'I' for Inactive)
REMARK    1  A    between atoms: O_2  and  C_16 
REMARK    2  A    between atoms: N_3  and  C_10 
REMARK    3  A    between atoms: N_8  and  C_17 
REMARK    4  A    between atoms: C_10  and  C_13 
REMARK    5  A    between atoms: C_11  and  C_12 
REMARK    6  A    between atoms: C_12  and  C_16 
ROOT
HETATM    1  N   UNK N   1     -31.002  41.157  -7.596  0.00  0.00    -0.332 N 
ATOM      2  HN  UNK N   1     -31.281  40.319  -7.086  1.00  0.00     0.168 HD
HETATM    3  N   UNK N   1     -29.996  42.126  -9.488  0.00  0.00    -0.355 N 
ATOM      4  HN  UNK N   1     -29.521  42.015 -10.383  1.00  0.00     0.166 HD
HETATM    5  C   UNK N   1     -30.887  43.543  -7.777  0.00  0.00     0.019 A 
HETATM    6  C   UNK N   1     -31.270  42.380  -7.062  0.00  0.00     0.109 A 
HETATM    7  C   UNK N   1     -30.244  43.374  -9.009  0.00  0.00     0.102 A 
HETATM    8  C   UNK N   1     -30.374  41.024  -8.791  0.00  0.00     0.078 A 
HETATM    9  C   UNK N   1     -30.107  39.661  -9.341  0.00  0.00     0.089 C 
ENDROOT
BRANCH   5  10
HETATM   10  C   UNK N   1     -31.151  44.947  -7.268  0.00  0.00     0.172 C 
BRANCH  10  11
HETATM   11  N   UNK N   1     -32.280  45.570  -7.978  0.00  0.00    -0.349 N 
HETATM   12  C   UNK N   1     -32.174  46.540  -8.970  0.00  0.00     0.021 A 
HETATM   13  C   UNK N   1     -33.419  47.003  -9.455  0.00  0.00     0.008 A 
HETATM   14  C   UNK N   1     -30.847  47.084  -9.427  0.00  0.00     0.069 C 
HETATM   15  S   UNK N   1     -34.577  46.185  -8.607  0.00  0.00    -0.087 SA
HETATM   16  C   UNK N   1     -33.575  45.269  -7.673  0.00  0.00     0.141 A 
BRANCH  13  17
HETATM   17  C   UNK N   1     -33.712  48.056 -10.484  0.00  0.00     0.074 C 
BRANCH  17  18
HETATM   18  C   UNK N   1     -34.368  47.423 -11.712  0.00  0.00     0.169 C 
BRANCH  18  19
HETATM   19  O   UNK N   1     -33.589  46.362 -12.191  0.00  0.00    -0.401 OA
HETATM   20  H   UNK N   1     -34.161  45.850 -12.820  0.00  0.00     0.209 HD
ENDBRANCH  18  19
ENDBRANCH  17  18
ENDBRANCH  13  17
ENDBRANCH  10  11
ENDBRANCH   5  10
BRANCH   6  21
HETATM   21  N   UNK N   1     -31.953  42.433  -5.819  0.00  0.00    -0.385 N 
HETATM   22  H   UNK N   1     -32.934  42.726  -5.735  0.00  0.00     0.157 HD
HETATM   23  H   UNK N   1     -31.472  42.127  -4.962  0.00  0.00     0.157 HD
ENDBRANCH   6  21
TORSDOF 6
ENDMDL
