MODEL 1
REMARK VINA RESULT:      -8.5      0.000      0.000
REMARK  13 active torsions:
REMARK  status: ('A' for Active; 'I' for Inactive)
REMARK    1  A    between atoms: O_3  and  C_14 
REMARK    2  A    between atoms: O_4  and  C_20 
REMARK    3  A    between atoms: O_5  and  C_24 
REMARK    4  A    between atoms: O_6  and  C_27 
REMARK    5  A    between atoms: O_7  and  C_26 
REMARK    6  A    between atoms: O_8  and  C_33 
REMARK    7  A    between atoms: O_9  and  C_37 
REMARK    8  A    between atoms: O_10  and  C_39 
REMARK    9  A    between atoms: O_11  and  C_40 
REMARK   10  A    between atoms: O_12  and  C_42 
REMARK   11  A    between atoms: C_13  and  C_15 
REMARK   12  A    between atoms: C_16  and  C_25 
REMARK   13  A    between atoms: C_21  and  C_29 
ROOT
HETATM    1  O   UNK N   1     -25.264  26.065 -18.308  0.00  0.00    -0.338 OA
HETATM    2  C   UNK N   1     -25.596  25.643 -15.488  0.00  0.00     0.094 C 
HETATM    3  C   UNK N   1     -24.599  24.836 -16.366  0.00  0.00     0.165 C 
HETATM    4  C   UNK N   1     -24.154  25.690 -17.564  0.00  0.00     0.191 C 
HETATM    5  C   UNK N   1     -26.603  26.417 -16.333  0.00  0.00     0.020 A 
HETATM    6  C   UNK N   1     -26.382  26.570 -17.725  0.00  0.00     0.082 A 
HETATM    7  C   UNK N   1     -27.735  27.009 -15.741  0.00  0.00     0.078 A 
HETATM    8  C   UNK N   1     -27.310  27.263 -18.507  0.00  0.00     0.074 A 
HETATM    9  C   UNK N   1     -28.647  27.719 -16.537  0.00  0.00     0.073 A 
HETATM   10  C   UNK N   1     -28.439  27.841 -17.918  0.00  0.00     0.071 A 
ENDROOT
BRANCH   2  11
HETATM   11  C   UNK N   1     -24.870  26.528 -14.462  0.00  0.00     0.020 A 
HETATM   12  C   UNK N   1     -24.520  25.972 -13.207  0.00  0.00     0.088 A 
HETATM   13  O   UNK N   1     -24.787  24.662 -12.946  0.00  0.00    -0.337 OA
HETATM   14  C   UNK N   1     -23.874  26.760 -12.228  0.00  0.00     0.012 A 
HETATM   15  C   UNK N   1     -24.192  23.981 -11.892  0.00  0.00     0.191 C 
HETATM   16  C   UNK N   1     -24.285  24.840 -10.625  0.00  0.00     0.156 C 
HETATM   17  C   UNK N   1     -23.532  26.158 -10.878  0.00  0.00     0.079 C 
HETATM   18  C   UNK N   1     -23.526  28.086 -12.515  0.00  0.00     0.077 A 
HETATM   19  C   UNK N   1     -23.849  28.635 -13.759  0.00  0.00     0.074 A 
HETATM   20  C   UNK N   1     -24.517  27.878 -14.728  0.00  0.00     0.078 A 
BRANCH  15  21
HETATM   21  C   UNK N   1     -24.828  22.626 -11.694  0.00  0.00    -0.024 A 
HETATM   22  C   UNK N   1     -26.058  22.307 -12.296  0.00  0.00     0.049 A 
HETATM   23  C   UNK N   1     -26.644  21.048 -12.089  0.00  0.00     0.099 A 
HETATM   24  C   UNK N   1     -26.003  20.106 -11.271  0.00  0.00     0.098 A 
HETATM   25  C   UNK N   1     -24.781  20.425 -10.666  0.00  0.00     0.040 A 
HETATM   26  C   UNK N   1     -24.195  21.675 -10.878  0.00  0.00     0.013 A 
BRANCH  23  27
HETATM   27  O   UNK N   1     -27.821  20.740 -12.672  0.00  0.00    -0.358 OA
HETATM   28  H   UNK N   1     -27.959  19.895 -13.124  0.00  0.00     0.218 HD
ENDBRANCH  23  27
BRANCH  24  29
HETATM   29  O   UNK N   1     -26.571  18.899 -11.069  0.00  0.00    -0.358 OA
HETATM   30  H   UNK N   1     -26.869  18.618 -10.192  0.00  0.00     0.218 HD
ENDBRANCH  24  29
ENDBRANCH  15  21
BRANCH  16  31
HETATM   31  O   UNK N   1     -25.631  25.126 -10.338  0.00  0.00    -0.392 OA
HETATM   32  H   UNK N   1     -25.650  26.017  -9.901  0.00  0.00     0.210 HD
ENDBRANCH  16  31
BRANCH  18  33
HETATM   33  O   UNK N   1     -22.888  28.833 -11.589  0.00  0.00    -0.360 OA
HETATM   34  H   UNK N   1     -23.157  29.742 -11.392  0.00  0.00     0.217 HD
ENDBRANCH  18  33
BRANCH  20  35
HETATM   35  O   UNK N   1     -24.813  28.448 -15.916  0.00  0.00    -0.360 OA
HETATM   36  H   UNK N   1     -25.304  27.977 -16.604  0.00  0.00     0.217 HD
ENDBRANCH  20  35
ENDBRANCH   2  11
BRANCH   3  37
HETATM   37  O   UNK N   1     -25.178  23.630 -16.811  0.00  0.00    -0.392 OA
HETATM   38  H   UNK N   1     -24.777  23.386 -17.685  0.00  0.00     0.210 HD
ENDBRANCH   3  37
BRANCH   4  39
HETATM   39  C   UNK N   1     -23.143  24.968 -18.420  0.00  0.00    -0.024 A 
HETATM   40  C   UNK N   1     -21.900  24.623 -17.869  0.00  0.00     0.049 A 
HETATM   41  C   UNK N   1     -20.950  23.933 -18.632  0.00  0.00     0.099 A 
HETATM   42  C   UNK N   1     -21.240  23.590 -19.966  0.00  0.00     0.098 A 
HETATM   43  C   UNK N   1     -22.479  23.937 -20.518  0.00  0.00     0.040 A 
HETATM   44  C   UNK N   1     -23.429  24.616 -19.751  0.00  0.00     0.013 A 
BRANCH  41  45
HETATM   45  O   UNK N   1     -19.763  23.594 -18.088  0.00  0.00    -0.358 OA
HETATM   46  H   UNK N   1     -18.943  23.615 -18.604  0.00  0.00     0.218 HD
ENDBRANCH  41  45
BRANCH  42  47
HETATM   47  O   UNK N   1     -20.342  22.926 -20.725  0.00  0.00    -0.358 OA
HETATM   48  H   UNK N   1     -20.462  21.999 -20.972  0.00  0.00     0.218 HD
ENDBRANCH  42  47
ENDBRANCH   4  39
BRANCH   7  49
HETATM   49  O   UNK N   1     -27.939  26.896 -14.412  0.00  0.00    -0.360 OA
HETATM   50  H   UNK N   1     -27.297  26.465 -13.832  0.00  0.00     0.217 HD
ENDBRANCH   7  49
BRANCH  10  51
HETATM   51  O   UNK N   1     -29.315  28.522 -18.686  0.00  0.00    -0.361 OA
HETATM   52  H   UNK N   1     -29.049  28.924 -19.526  0.00  0.00     0.217 HD
ENDBRANCH  10  51
TORSDOF 13
ENDMDL
MODEL 2
REMARK VINA RESULT:      -8.5      2.063      6.969
REMARK  13 active torsions:
REMARK  status: ('A' for Active; 'I' for Inactive)
REMARK    1  A    between atoms: O_3  and  C_14 
REMARK    2  A    between atoms: O_4  and  C_20 
REMARK    3  A    between atoms: O_5  and  C_24 
REMARK    4  A    between atoms: O_6  and  C_27 
REMARK    5  A    between atoms: O_7  and  C_26 
REMARK    6  A    between atoms: O_8  and  C_33 
REMARK    7  A    between atoms: O_9  and  C_37 
REMARK    8  A    between atoms: O_10  and  C_39 
REMARK    9  A    between atoms: O_11  and  C_40 
REMARK   10  A    between atoms: O_12  and  C_42 
REMARK   11  A    between atoms: C_13  and  C_15 
REMARK   12  A    between atoms: C_16  and  C_25 
REMARK   13  A    between atoms: C_21  and  C_29 
ROOT
HETATM    1  O   UNK N   1     -25.129  25.507 -13.383  0.00  0.00    -0.338 OA
HETATM    2  C   UNK N   1     -22.284  25.447 -13.002  0.00  0.00     0.094 C 
HETATM    3  C   UNK N   1     -23.243  24.334 -12.493  0.00  0.00     0.165 C 
HETATM    4  C   UNK N   1     -24.491  24.274 -13.389  0.00  0.00     0.191 C 
HETATM    5  C   UNK N   1     -23.039  26.710 -13.402  0.00  0.00     0.020 A 
HETATM    6  C   UNK N   1     -24.447  26.670 -13.554  0.00  0.00     0.082 A 
HETATM    7  C   UNK N   1     -22.349  27.912 -13.653  0.00  0.00     0.078 A 
HETATM    8  C   UNK N   1     -25.146  27.829 -13.904  0.00  0.00     0.074 A 
HETATM    9  C   UNK N   1     -23.063  29.062 -14.024  0.00  0.00     0.073 A 
HETATM   10  C   UNK N   1     -24.459  29.023 -14.142  0.00  0.00     0.071 A 
ENDROOT
BRANCH   2  11
HETATM   11  C   UNK N   1     -21.346  24.935 -14.106  0.00  0.00     0.020 A 
HETATM   12  C   UNK N   1     -21.818  24.904 -15.442  0.00  0.00     0.088 A 
HETATM   13  O   UNK N   1     -23.066  25.365 -15.733  0.00  0.00    -0.337 OA
HETATM   14  C   UNK N   1     -20.995  24.418 -16.482  0.00  0.00     0.012 A 
HETATM   15  C   UNK N   1     -23.462  25.664 -17.030  0.00  0.00     0.191 C 
HETATM   16  C   UNK N   1     -23.056  24.510 -17.955  0.00  0.00     0.156 C 
HETATM   17  C   UNK N   1     -21.525  24.363 -17.903  0.00  0.00     0.079 C 
HETATM   18  C   UNK N   1     -19.683  24.012 -16.206  0.00  0.00     0.077 A 
HETATM   19  C   UNK N   1     -19.204  24.061 -14.894  0.00  0.00     0.074 A 
HETATM   20  C   UNK N   1     -20.016  24.511 -13.847  0.00  0.00     0.078 A 
BRANCH  15  21
HETATM   21  C   UNK N   1     -24.945  25.935 -17.096  0.00  0.00    -0.024 A 
HETATM   22  C   UNK N   1     -25.880  24.939 -16.762  0.00  0.00     0.049 A 
HETATM   23  C   UNK N   1     -27.257  25.202 -16.843  0.00  0.00     0.099 A 
HETATM   24  C   UNK N   1     -27.702  26.462 -17.269  0.00  0.00     0.098 A 
HETATM   25  C   UNK N   1     -26.772  27.453 -17.607  0.00  0.00     0.040 A 
HETATM   26  C   UNK N   1     -25.403  27.193 -17.520  0.00  0.00     0.013 A 
BRANCH  23  27
HETATM   27  O   UNK N   1     -28.154  24.249 -16.517  0.00  0.00    -0.358 OA
HETATM   28  H   UNK N   1     -27.890  23.329 -16.375  0.00  0.00     0.218 HD
ENDBRANCH  23  27
BRANCH  24  29
HETATM   29  O   UNK N   1     -29.026  26.711 -17.351  0.00  0.00    -0.358 OA
HETATM   30  H   UNK N   1     -29.682  26.006 -17.254  0.00  0.00     0.218 HD
ENDBRANCH  24  29
ENDBRANCH  15  21
BRANCH  16  31
HETATM   31  O   UNK N   1     -23.648  23.313 -17.515  0.00  0.00    -0.392 OA
HETATM   32  H   UNK N   1     -24.500  23.211 -18.015  0.00  0.00     0.210 HD
ENDBRANCH  16  31
BRANCH  18  33
HETATM   33  O   UNK N   1     -18.888  23.569 -17.203  0.00  0.00    -0.360 OA
HETATM   34  H   UNK N   1     -18.686  24.116 -17.976  0.00  0.00     0.217 HD
ENDBRANCH  18  33
BRANCH  20  35
HETATM   35  O   UNK N   1     -19.515  24.538 -12.593  0.00  0.00    -0.360 OA
HETATM   36  H   UNK N   1     -18.565  24.477 -12.418  0.00  0.00     0.217 HD
ENDBRANCH  20  35
ENDBRANCH   2  11
BRANCH   3  37
HETATM   37  O   UNK N   1     -23.613  24.559 -11.151  0.00  0.00    -0.392 OA
HETATM   38  H   UNK N   1     -23.453  25.512 -10.931  0.00  0.00     0.210 HD
ENDBRANCH   3  37
BRANCH   4  39
HETATM   39  C   UNK N   1     -25.430  23.172 -12.966  0.00  0.00    -0.024 A 
HETATM   40  C   UNK N   1     -24.899  21.957 -12.510  0.00  0.00     0.049 A 
HETATM   41  C   UNK N   1     -25.745  20.923 -12.090  0.00  0.00     0.099 A 
HETATM   42  C   UNK N   1     -27.140  21.101 -12.134  0.00  0.00     0.098 A 
HETATM   43  C   UNK N   1     -27.672  22.312 -12.592  0.00  0.00     0.040 A 
HETATM   44  C   UNK N   1     -26.824  23.346 -13.000  0.00  0.00     0.013 A 
BRANCH  41  45
HETATM   45  O   UNK N   1     -25.223  19.762 -11.641  0.00  0.00    -0.358 OA
HETATM   46  H   UNK N   1     -24.909  19.078 -12.250  0.00  0.00     0.218 HD
ENDBRANCH  41  45
BRANCH  42  47
HETATM   47  O   UNK N   1     -27.980  20.120 -11.737  0.00  0.00    -0.358 OA
HETATM   48  H   UNK N   1     -28.346  20.087 -10.843  0.00  0.00     0.218 HD
ENDBRANCH  42  47
ENDBRANCH   4  39
BRANCH   7  49
HETATM   49  O   UNK N   1     -21.004  27.955 -13.541  0.00  0.00    -0.360 OA
HETATM   50  H   UNK N   1     -20.479  28.646 -13.968  0.00  0.00     0.217 HD
ENDBRANCH   7  49
BRANCH  10  51
HETATM   51  O   UNK N   1     -25.148  30.127 -14.497  0.00  0.00    -0.361 OA
HETATM   52  H   UNK N   1     -24.895  31.007 -14.183  0.00  0.00     0.217 HD
ENDBRANCH  10  51
TORSDOF 13
ENDMDL
MODEL 3
REMARK VINA RESULT:      -8.3     14.356     18.085
REMARK  13 active torsions:
REMARK  status: ('A' for Active; 'I' for Inactive)
REMARK    1  A    between atoms: O_3  and  C_14 
REMARK    2  A    between atoms: O_4  and  C_20 
REMARK    3  A    between atoms: O_5  and  C_24 
REMARK    4  A    between atoms: O_6  and  C_27 
REMARK    5  A    between atoms: O_7  and  C_26 
REMARK    6  A    between atoms: O_8  and  C_33 
REMARK    7  A    between atoms: O_9  and  C_37 
REMARK    8  A    between atoms: O_10  and  C_39 
REMARK    9  A    between atoms: O_11  and  C_40 
REMARK   10  A    between atoms: O_12  and  C_42 
REMARK   11  A    between atoms: C_13  and  C_15 
REMARK   12  A    between atoms: C_16  and  C_25 
REMARK   13  A    between atoms: C_21  and  C_29 
ROOT
HETATM    1  O   UNK N   1      -8.886  17.942  -5.758  0.00  0.00    -0.338 OA
HETATM    2  C   UNK N   1     -11.683  18.549  -5.533  0.00  0.00     0.094 C 
HETATM    3  C   UNK N   1     -11.088  17.639  -6.644  0.00  0.00     0.165 C 
HETATM    4  C   UNK N   1      -9.803  16.969  -6.133  0.00  0.00     0.191 C 
HETATM    5  C   UNK N   1     -10.602  19.346  -4.809  0.00  0.00     0.020 A 
HETATM    6  C   UNK N   1      -9.239  19.000  -4.982  0.00  0.00     0.082 A 
HETATM    7  C   UNK N   1     -10.945  20.404  -3.945  0.00  0.00     0.078 A 
HETATM    8  C   UNK N   1      -8.243  19.737  -4.335  0.00  0.00     0.074 A 
HETATM    9  C   UNK N   1      -9.935  21.121  -3.287  0.00  0.00     0.073 A 
HETATM   10  C   UNK N   1      -8.586  20.794  -3.486  0.00  0.00     0.071 A 
ENDROOT
BRANCH   2  11
HETATM   11  C   UNK N   1     -12.591  17.764  -4.573  0.00  0.00     0.020 A 
HETATM   12  C   UNK N   1     -13.984  17.723  -4.831  0.00  0.00     0.088 A 
HETATM   13  O   UNK N   1     -14.488  18.334  -5.939  0.00  0.00    -0.337 OA
HETATM   14  C   UNK N   1     -14.855  17.032  -3.960  0.00  0.00     0.012 A 
HETATM   15  C   UNK N   1     -15.762  18.063  -6.419  0.00  0.00     0.191 C 
HETATM   16  C   UNK N   1     -16.755  18.101  -5.251  0.00  0.00     0.156 C 
HETATM   17  C   UNK N   1     -16.347  17.021  -4.233  0.00  0.00     0.079 C 
HETATM   18  C   UNK N   1     -14.337  16.335  -2.859  0.00  0.00     0.077 A 
HETATM   19  C   UNK N   1     -12.962  16.353  -2.612  0.00  0.00     0.074 A 
HETATM   20  C   UNK N   1     -12.089  17.059  -3.447  0.00  0.00     0.078 A 
BRANCH  15  21
HETATM   21  C   UNK N   1     -16.149  19.032  -7.510  0.00  0.00    -0.024 A 
HETATM   22  C   UNK N   1     -15.517  19.001  -8.766  0.00  0.00     0.049 A 
HETATM   23  C   UNK N   1     -15.877  19.919  -9.765  0.00  0.00     0.099 A 
HETATM   24  C   UNK N   1     -16.866  20.879  -9.506  0.00  0.00     0.098 A 
HETATM   25  C   UNK N   1     -17.492  20.915  -8.253  0.00  0.00     0.040 A 
HETATM   26  C   UNK N   1     -17.139  19.997  -7.263  0.00  0.00     0.013 A 
BRANCH  23  27
HETATM   27  O   UNK N   1     -15.276  19.884 -10.972  0.00  0.00    -0.358 OA
HETATM   28  H   UNK N   1     -14.499  20.427 -11.169  0.00  0.00     0.218 HD
ENDBRANCH  23  27
BRANCH  24  29
HETATM   29  O   UNK N   1     -17.207  21.764 -10.466  0.00  0.00    -0.358 OA
HETATM   30  H   UNK N   1     -16.865  21.691 -11.369  0.00  0.00     0.218 HD
ENDBRANCH  24  29
ENDBRANCH  15  21
BRANCH  16  31
HETATM   31  O   UNK N   1     -16.714  19.361  -4.628  0.00  0.00    -0.392 OA
HETATM   32  H   UNK N   1     -15.790  19.485  -4.287  0.00  0.00     0.210 HD
ENDBRANCH  16  31
BRANCH  18  33
HETATM   33  O   UNK N   1     -15.166  15.656  -2.039  0.00  0.00    -0.360 OA
HETATM   34  H   UNK N   1     -14.895  14.834  -1.605  0.00  0.00     0.217 HD
ENDBRANCH  18  33
BRANCH  20  35
HETATM   35  O   UNK N   1     -10.767  17.054  -3.169  0.00  0.00    -0.360 OA
HETATM   36  H   UNK N   1     -10.138  17.606  -3.654  0.00  0.00     0.217 HD
ENDBRANCH  20  35
ENDBRANCH   2  11
BRANCH   3  37
HETATM   37  O   UNK N   1     -10.824  18.378  -7.816  0.00  0.00    -0.392 OA
HETATM   38  H   UNK N   1     -10.551  19.296  -7.560  0.00  0.00     0.210 HD
ENDBRANCH   3  37
BRANCH   4  39
HETATM   39  C   UNK N   1      -9.215  16.033  -7.159  0.00  0.00    -0.024 A 
HETATM   40  C   UNK N   1      -7.867  16.172  -7.522  0.00  0.00     0.049 A 
HETATM   41  C   UNK N   1      -7.287  15.304  -8.455  0.00  0.00     0.099 A 
HETATM   42  C   UNK N   1      -8.065  14.289  -9.042  0.00  0.00     0.098 A 
HETATM   43  C   UNK N   1      -9.412  14.151  -8.684  0.00  0.00     0.040 A 
HETATM   44  C   UNK N   1      -9.985  15.012  -7.744  0.00  0.00     0.013 A 
BRANCH  41  45
HETATM   45  O   UNK N   1      -5.987  15.439  -8.786  0.00  0.00    -0.358 OA
HETATM   46  H   UNK N   1      -5.319  15.690  -8.131  0.00  0.00     0.218 HD
ENDBRANCH  41  45
BRANCH  42  47
HETATM   47  O   UNK N   1      -7.533  13.439  -9.947  0.00  0.00    -0.358 OA
HETATM   48  H   UNK N   1      -8.081  12.923 -10.553  0.00  0.00     0.218 HD
ENDBRANCH  42  47
ENDBRANCH   4  39
BRANCH   7  49
HETATM   49  O   UNK N   1     -12.241  20.723  -3.749  0.00  0.00    -0.360 OA
HETATM   50  H   UNK N   1     -12.535  21.642  -3.676  0.00  0.00     0.217 HD
ENDBRANCH   7  49
BRANCH  10  51
HETATM   51  O   UNK N   1      -7.612  21.483  -2.855  0.00  0.00    -0.361 OA
HETATM   52  H   UNK N   1      -7.423  22.408  -3.071  0.00  0.00     0.217 HD
ENDBRANCH  10  51
TORSDOF 13
ENDMDL
MODEL 4
REMARK VINA RESULT:      -8.1      7.514     11.199
REMARK  13 active torsions:
REMARK  status: ('A' for Active; 'I' for Inactive)
REMARK    1  A    between atoms: O_3  and  C_14 
REMARK    2  A    between atoms: O_4  and  C_20 
REMARK    3  A    between atoms: O_5  and  C_24 
REMARK    4  A    between atoms: O_6  and  C_27 
REMARK    5  A    between atoms: O_7  and  C_26 
REMARK    6  A    between atoms: O_8  and  C_33 
REMARK    7  A    between atoms: O_9  and  C_37 
REMARK    8  A    between atoms: O_10  and  C_39 
REMARK    9  A    between atoms: O_11  and  C_40 
REMARK   10  A    between atoms: O_12  and  C_42 
REMARK   11  A    between atoms: C_13  and  C_15 
REMARK   12  A    between atoms: C_16  and  C_25 
REMARK   13  A    between atoms: C_21  and  C_29 
ROOT
HETATM    1  O   UNK N   1     -23.886  22.997  -7.664  0.00  0.00    -0.338 OA
HETATM    2  C   UNK N   1     -21.485  21.762  -6.687  0.00  0.00     0.094 C 
HETATM    3  C   UNK N   1     -22.625  20.981  -7.400  0.00  0.00     0.165 C 
HETATM    4  C   UNK N   1     -23.369  21.916  -8.366  0.00  0.00     0.191 C 
HETATM    5  C   UNK N   1     -21.931  23.157  -6.261  0.00  0.00     0.020 A 
HETATM    6  C   UNK N   1     -23.138  23.696  -6.770  0.00  0.00     0.082 A 
HETATM    7  C   UNK N   1     -21.139  23.930  -5.389  0.00  0.00     0.078 A 
HETATM    8  C   UNK N   1     -23.560  24.967  -6.369  0.00  0.00     0.074 A 
HETATM    9  C   UNK N   1     -21.567  25.213  -5.012  0.00  0.00     0.073 A 
HETATM   10  C   UNK N   1     -22.778  25.728  -5.495  0.00  0.00     0.071 A 
ENDROOT
BRANCH   2  11
HETATM   11  C   UNK N   1     -20.192  21.775  -7.517  0.00  0.00     0.020 A 
HETATM   12  C   UNK N   1     -19.090  20.998  -7.077  0.00  0.00     0.088 A 
HETATM   13  O   UNK N   1     -19.207  20.224  -5.963  0.00  0.00    -0.337 OA
HETATM   14  C   UNK N   1     -17.876  21.002  -7.800  0.00  0.00     0.012 A 
HETATM   15  C   UNK N   1     -18.305  19.211  -5.668  0.00  0.00     0.191 C 
HETATM   16  C   UNK N   1     -16.878  19.747  -5.837  0.00  0.00     0.156 C 
HETATM   17  C   UNK N   1     -16.697  20.189  -7.300  0.00  0.00     0.079 C 
HETATM   18  C   UNK N   1     -17.771  21.735  -8.989  0.00  0.00     0.077 A 
HETATM   19  C   UNK N   1     -18.860  22.485  -9.440  0.00  0.00     0.074 A 
HETATM   20  C   UNK N   1     -20.060  22.518  -8.720  0.00  0.00     0.078 A 
BRANCH  15  21
HETATM   21  C   UNK N   1     -18.534  18.668  -4.278  0.00  0.00    -0.024 A 
HETATM   22  C   UNK N   1     -17.967  17.447  -3.873  0.00  0.00     0.049 A 
HETATM   23  C   UNK N   1     -18.202  16.948  -2.582  0.00  0.00     0.099 A 
HETATM   24  C   UNK N   1     -19.015  17.667  -1.694  0.00  0.00     0.098 A 
HETATM   25  C   UNK N   1     -19.585  18.882  -2.098  0.00  0.00     0.040 A 
HETATM   26  C   UNK N   1     -19.345  19.381  -3.379  0.00  0.00     0.013 A 
BRANCH  23  27
HETATM   27  O   UNK N   1     -17.653  15.779  -2.192  0.00  0.00    -0.358 OA
HETATM   28  H   UNK N   1     -16.695  15.643  -2.188  0.00  0.00     0.218 HD
ENDBRANCH  23  27
BRANCH  24  29
HETATM   29  O   UNK N   1     -19.244  17.183  -0.455  0.00  0.00    -0.358 OA
HETATM   30  H   UNK N   1     -20.064  17.377   0.022  0.00  0.00     0.218 HD
ENDBRANCH  24  29
ENDBRANCH  15  21
BRANCH  16  31
HETATM   31  O   UNK N   1     -16.679  20.855  -4.993  0.00  0.00    -0.392 OA
HETATM   32  H   UNK N   1     -17.564  21.091  -4.612  0.00  0.00     0.210 HD
ENDBRANCH  16  31
BRANCH  18  33
HETATM   33  O   UNK N   1     -16.619  21.721  -9.691  0.00  0.00    -0.360 OA
HETATM   34  H   UNK N   1     -15.847  22.238  -9.418  0.00  0.00     0.217 HD
ENDBRANCH  18  33
BRANCH  20  35
HETATM   35  O   UNK N   1     -21.087  23.259  -9.190  0.00  0.00    -0.360 OA
HETATM   36  H   UNK N   1     -22.007  22.972  -9.108  0.00  0.00     0.217 HD
ENDBRANCH  20  35
ENDBRANCH   2  11
BRANCH   3  37
HETATM   37  O   UNK N   1     -23.521  20.427  -6.464  0.00  0.00    -0.392 OA
HETATM   38  H   UNK N   1     -23.440  19.439  -6.489  0.00  0.00     0.210 HD
ENDBRANCH   3  37
BRANCH   4  39
HETATM   39  C   UNK N   1     -24.454  21.190  -9.123  0.00  0.00    -0.024 A 
HETATM   40  C   UNK N   1     -24.175  20.680 -10.399  0.00  0.00     0.049 A 
HETATM   41  C   UNK N   1     -25.154  19.982 -11.116  0.00  0.00     0.099 A 
HETATM   42  C   UNK N   1     -26.432  19.798 -10.556  0.00  0.00     0.098 A 
HETATM   43  C   UNK N   1     -26.713  20.309  -9.284  0.00  0.00     0.040 A 
HETATM   44  C   UNK N   1     -25.730  20.996  -8.566  0.00  0.00     0.013 A 
BRANCH  41  45
HETATM   45  O   UNK N   1     -24.871  19.484 -12.338  0.00  0.00    -0.358 OA
HETATM   46  H   UNK N   1     -24.605  20.058 -13.071  0.00  0.00     0.218 HD
ENDBRANCH  41  45
BRANCH  42  47
HETATM   47  O   UNK N   1     -27.396  19.130 -11.226  0.00  0.00    -0.358 OA
HETATM   48  H   UNK N   1     -27.610  19.324 -12.149  0.00  0.00     0.218 HD
ENDBRANCH  42  47
ENDBRANCH   4  39
BRANCH   7  49
HETATM   49  O   UNK N   1     -19.972  23.439  -4.921  0.00  0.00    -0.360 OA
HETATM   50  H   UNK N   1     -19.576  23.762  -4.100  0.00  0.00     0.217 HD
ENDBRANCH   7  49
BRANCH  10  51
HETATM   51  O   UNK N   1     -23.192  26.960  -5.134  0.00  0.00    -0.361 OA
HETATM   52  H   UNK N   1     -22.859  27.757  -5.571  0.00  0.00     0.217 HD
ENDBRANCH  10  51
TORSDOF 13
ENDMDL
MODEL 5
REMARK VINA RESULT:      -7.9      4.001      6.686
REMARK  13 active torsions:
REMARK  status: ('A' for Active; 'I' for Inactive)
REMARK    1  A    between atoms: O_3  and  C_14 
REMARK    2  A    between atoms: O_4  and  C_20 
REMARK    3  A    between atoms: O_5  and  C_24 
REMARK    4  A    between atoms: O_6  and  C_27 
REMARK    5  A    between atoms: O_7  and  C_26 
REMARK    6  A    between atoms: O_8  and  C_33 
REMARK    7  A    between atoms: O_9  and  C_37 
REMARK    8  A    between atoms: O_10  and  C_39 
REMARK    9  A    between atoms: O_11  and  C_40 
REMARK   10  A    between atoms: O_12  and  C_42 
REMARK   11  A    between atoms: C_13  and  C_15 
REMARK   12  A    between atoms: C_16  and  C_25 
REMARK   13  A    between atoms: C_21  and  C_29 
ROOT
HETATM    1  O   UNK N   1     -19.680  24.000 -12.455  0.00  0.00    -0.338 OA
HETATM    2  C   UNK N   1     -22.442  24.312 -11.734  0.00  0.00     0.094 C 
HETATM    3  C   UNK N   1     -21.488  23.285 -11.061  0.00  0.00     0.165 C 
HETATM    4  C   UNK N   1     -20.041  23.798 -11.130  0.00  0.00     0.191 C 
HETATM    5  C   UNK N   1     -21.855  24.872 -13.026  0.00  0.00     0.020 A 
HETATM    6  C   UNK N   1     -20.486  24.663 -13.325  0.00  0.00     0.082 A 
HETATM    7  C   UNK N   1     -22.652  25.622 -13.912  0.00  0.00     0.078 A 
HETATM    8  C   UNK N   1     -19.947  25.159 -14.516  0.00  0.00     0.074 A 
HETATM    9  C   UNK N   1     -22.092  26.130 -15.094  0.00  0.00     0.073 A 
HETATM   10  C   UNK N   1     -20.744  25.894 -15.400  0.00  0.00     0.071 A 
ENDROOT
BRANCH   2  11
HETATM   11  C   UNK N   1     -22.887  25.409 -10.755  0.00  0.00     0.020 A 
HETATM   12  C   UNK N   1     -24.089  25.228 -10.026  0.00  0.00     0.088 A 
HETATM   13  O   UNK N   1     -24.802  24.076 -10.168  0.00  0.00    -0.337 OA
HETATM   14  C   UNK N   1     -24.545  26.224  -9.134  0.00  0.00     0.012 A 
HETATM   15  C   UNK N   1     -25.787  23.699  -9.265  0.00  0.00     0.191 C 
HETATM   16  C   UNK N   1     -26.701  24.899  -8.991  0.00  0.00     0.156 C 
HETATM   17  C   UNK N   1     -25.849  26.028  -8.384  0.00  0.00     0.079 C 
HETATM   18  C   UNK N   1     -23.780  27.379  -8.924  0.00  0.00     0.077 A 
HETATM   19  C   UNK N   1     -22.582  27.554  -9.621  0.00  0.00     0.074 A 
HETATM   20  C   UNK N   1     -22.131  26.592 -10.532  0.00  0.00     0.078 A 
BRANCH  15  21
HETATM   21  C   UNK N   1     -26.566  22.511  -9.777  0.00  0.00    -0.024 A 
HETATM   22  C   UNK N   1     -26.359  22.012 -11.075  0.00  0.00     0.049 A 
HETATM   23  C   UNK N   1     -27.103  20.917 -11.541  0.00  0.00     0.099 A 
HETATM   24  C   UNK N   1     -28.064  20.322 -10.711  0.00  0.00     0.098 A 
HETATM   25  C   UNK N   1     -28.275  20.822  -9.419  0.00  0.00     0.040 A 
HETATM   26  C   UNK N   1     -27.530  21.907  -8.954  0.00  0.00     0.013 A 
BRANCH  23  27
HETATM   27  O   UNK N   1     -26.900  20.434 -12.784  0.00  0.00    -0.358 OA
HETATM   28  H   UNK N   1     -27.406  20.756 -13.544  0.00  0.00     0.218 HD
ENDBRANCH  23  27
BRANCH  24  29
HETATM   29  O   UNK N   1     -28.781  19.272 -11.163  0.00  0.00    -0.358 OA
HETATM   30  H   UNK N   1     -29.314  19.331 -11.970  0.00  0.00     0.218 HD
ENDBRANCH  24  29
ENDBRANCH  15  21
BRANCH  16  31
HETATM   31  O   UNK N   1     -27.273  25.350 -10.194  0.00  0.00    -0.392 OA
HETATM   32  H   UNK N   1     -27.839  26.134  -9.969  0.00  0.00     0.210 HD
ENDBRANCH  16  31
BRANCH  18  33
HETATM   33  O   UNK N   1     -24.203  28.320  -8.054  0.00  0.00    -0.360 OA
HETATM   34  H   UNK N   1     -24.700  29.098  -8.346  0.00  0.00     0.217 HD
ENDBRANCH  18  33
BRANCH  20  35
HETATM   35  O   UNK N   1     -20.970  26.802 -11.189  0.00  0.00    -0.360 OA
HETATM   36  H   UNK N   1     -20.233  26.178 -11.143  0.00  0.00     0.217 HD
ENDBRANCH  20  35
ENDBRANCH   2  11
BRANCH   3  37
HETATM   37  O   UNK N   1     -21.591  22.020 -11.675  0.00  0.00    -0.392 OA
HETATM   38  H   UNK N   1     -20.682  21.636 -11.770  0.00  0.00     0.210 HD
ENDBRANCH   3  37
BRANCH   4  39
HETATM   39  C   UNK N   1     -19.082  22.858 -10.442  0.00  0.00    -0.024 A 
HETATM   40  C   UNK N   1     -19.214  22.632  -9.064  0.00  0.00     0.049 A 
HETATM   41  C   UNK N   1     -18.353  21.749  -8.401  0.00  0.00     0.099 A 
HETATM   42  C   UNK N   1     -17.340  21.089  -9.121  0.00  0.00     0.098 A 
HETATM   43  C   UNK N   1     -17.205  21.316 -10.496  0.00  0.00     0.040 A 
HETATM   44  C   UNK N   1     -18.073  22.190 -11.157  0.00  0.00     0.013 A 
BRANCH  41  45
HETATM   45  O   UNK N   1     -18.498  21.528  -7.078  0.00  0.00    -0.358 OA
HETATM   46  H   UNK N   1     -18.085  22.105  -6.419  0.00  0.00     0.218 HD
ENDBRANCH  41  45
BRANCH  42  47
HETATM   47  O   UNK N   1     -16.495  20.233  -8.508  0.00  0.00    -0.358 OA
HETATM   48  H   UNK N   1     -15.796  19.767  -8.987  0.00  0.00     0.218 HD
ENDBRANCH  42  47
ENDBRANCH   4  39
BRANCH   7  49
HETATM   49  O   UNK N   1     -23.950  25.853 -13.623  0.00  0.00    -0.360 OA
HETATM   50  H   UNK N   1     -24.522  25.164 -13.259  0.00  0.00     0.217 HD
ENDBRANCH   7  49
BRANCH  10  51
HETATM   51  O   UNK N   1     -20.202  26.381 -16.536  0.00  0.00    -0.361 OA
HETATM   52  H   UNK N   1     -20.360  25.961 -17.394  0.00  0.00     0.217 HD
ENDBRANCH  10  51
TORSDOF 13
ENDMDL
MODEL 6
REMARK VINA RESULT:      -7.8      2.593      8.185
REMARK  13 active torsions:
REMARK  status: ('A' for Active; 'I' for Inactive)
REMARK    1  A    between atoms: O_3  and  C_14 
REMARK    2  A    between atoms: O_4  and  C_20 
REMARK    3  A    between atoms: O_5  and  C_24 
REMARK    4  A    between atoms: O_6  and  C_27 
REMARK    5  A    between atoms: O_7  and  C_26 
REMARK    6  A    between atoms: O_8  and  C_33 
REMARK    7  A    between atoms: O_9  and  C_37 
REMARK    8  A    between atoms: O_10  and  C_39 
REMARK    9  A    between atoms: O_11  and  C_40 
REMARK   10  A    between atoms: O_12  and  C_42 
REMARK   11  A    between atoms: C_13  and  C_15 
REMARK   12  A    between atoms: C_16  and  C_25 
REMARK   13  A    between atoms: C_21  and  C_29 
ROOT
HETATM    1  O   UNK N   1     -25.352  24.016  -9.276  0.00  0.00    -0.338 OA
HETATM    2  C   UNK N   1     -23.899  25.110 -11.497  0.00  0.00     0.094 C 
HETATM    3  C   UNK N   1     -24.470  23.664 -11.472  0.00  0.00     0.165 C 
HETATM    4  C   UNK N   1     -25.703  23.609 -10.556  0.00  0.00     0.191 C 
HETATM    5  C   UNK N   1     -23.890  25.743 -10.109  0.00  0.00     0.020 A 
HETATM    6  C   UNK N   1     -24.616  25.136  -9.055  0.00  0.00     0.082 A 
HETATM    7  C   UNK N   1     -23.191  26.942  -9.870  0.00  0.00     0.078 A 
HETATM    8  C   UNK N   1     -24.598  25.703  -7.776  0.00  0.00     0.074 A 
HETATM    9  C   UNK N   1     -23.199  27.510  -8.586  0.00  0.00     0.073 A 
HETATM   10  C   UNK N   1     -23.895  26.888  -7.540  0.00  0.00     0.071 A 
ENDROOT
BRANCH   2  11
HETATM   11  C   UNK N   1     -24.598  25.985 -12.549  0.00  0.00     0.020 A 
HETATM   12  C   UNK N   1     -23.969  26.176 -13.805  0.00  0.00     0.088 A 
HETATM   13  O   UNK N   1     -22.789  25.552 -14.075  0.00  0.00    -0.337 OA
HETATM   14  C   UNK N   1     -24.568  26.993 -14.789  0.00  0.00     0.012 A 
HETATM   15  C   UNK N   1     -22.294  25.433 -15.367  0.00  0.00     0.191 C 
HETATM   16  C   UNK N   1     -22.387  26.795 -16.067  0.00  0.00     0.156 C 
HETATM   17  C   UNK N   1     -23.868  27.213 -16.118  0.00  0.00     0.079 C 
HETATM   18  C   UNK N   1     -25.818  27.578 -14.549  0.00  0.00     0.077 A 
HETATM   19  C   UNK N   1     -26.454  27.375 -13.322  0.00  0.00     0.074 A 
HETATM   20  C   UNK N   1     -25.861  26.594 -12.323  0.00  0.00     0.078 A 
BRANCH  15  21
HETATM   21  C   UNK N   1     -20.879  24.907 -15.360  0.00  0.00    -0.024 A 
HETATM   22  C   UNK N   1     -20.100  24.903 -16.531  0.00  0.00     0.049 A 
HETATM   23  C   UNK N   1     -18.792  24.396 -16.511  0.00  0.00     0.099 A 
HETATM   24  C   UNK N   1     -18.260  23.883 -15.319  0.00  0.00     0.098 A 
HETATM   25  C   UNK N   1     -19.037  23.881 -14.153  0.00  0.00     0.040 A 
HETATM   26  C   UNK N   1     -20.336  24.392 -14.172  0.00  0.00     0.013 A 
BRANCH  23  27
HETATM   27  O   UNK N   1     -18.043  24.398 -17.633  0.00  0.00    -0.358 OA
HETATM   28  H   UNK N   1     -17.098  24.610 -17.615  0.00  0.00     0.218 HD
ENDBRANCH  23  27
BRANCH  24  29
HETATM   29  O   UNK N   1     -17.003  23.391 -15.304  0.00  0.00    -0.358 OA
HETATM   30  H   UNK N   1     -16.673  22.820 -16.013  0.00  0.00     0.218 HD
ENDBRANCH  24  29
ENDBRANCH  15  21
BRANCH  16  31
HETATM   31  O   UNK N   1     -21.662  27.757 -15.341  0.00  0.00    -0.392 OA
HETATM   32  H   UNK N   1     -21.953  27.685 -14.395  0.00  0.00     0.210 HD
ENDBRANCH  16  31
BRANCH  18  33
HETATM   33  O   UNK N   1     -26.402  28.340 -15.498  0.00  0.00    -0.360 OA
HETATM   34  H   UNK N   1     -27.038  29.035 -15.276  0.00  0.00     0.217 HD
ENDBRANCH  18  33
BRANCH  20  35
HETATM   35  O   UNK N   1     -26.508  26.427 -11.149  0.00  0.00    -0.360 OA
HETATM   36  H   UNK N   1     -27.431  26.688 -11.030  0.00  0.00     0.217 HD
ENDBRANCH  20  35
ENDBRANCH   2  11
BRANCH   3  37
HETATM   37  O   UNK N   1     -23.495  22.742 -11.039  0.00  0.00    -0.392 OA
HETATM   38  H   UNK N   1     -22.999  23.135 -10.276  0.00  0.00     0.210 HD
ENDBRANCH   3  37
BRANCH   4  39
HETATM   39  C   UNK N   1     -26.326  22.235 -10.540  0.00  0.00    -0.024 A 
HETATM   40  C   UNK N   1     -26.929  21.742 -11.706  0.00  0.00     0.049 A 
HETATM   41  C   UNK N   1     -27.496  20.462 -11.728  0.00  0.00     0.099 A 
HETATM   42  C   UNK N   1     -27.470  19.667 -10.568  0.00  0.00     0.098 A 
HETATM   43  C   UNK N   1     -26.872  20.159  -9.402  0.00  0.00     0.040 A 
HETATM   44  C   UNK N   1     -26.297  21.433  -9.386  0.00  0.00     0.013 A 
BRANCH  41  45
HETATM   45  O   UNK N   1     -28.060  19.992 -12.860  0.00  0.00    -0.358 OA
HETATM   46  H   UNK N   1     -29.022  19.942 -12.964  0.00  0.00     0.218 HD
ENDBRANCH  41  45
BRANCH  42  47
HETATM   47  O   UNK N   1     -28.010  18.429 -10.560  0.00  0.00    -0.358 OA
HETATM   48  H   UNK N   1     -27.849  17.792 -11.269  0.00  0.00     0.218 HD
ENDBRANCH  42  47
ENDBRANCH   4  39
BRANCH   7  49
HETATM   49  O   UNK N   1     -22.520  27.545 -10.874  0.00  0.00    -0.360 OA
HETATM   50  H   UNK N   1     -21.653  27.951 -10.736  0.00  0.00     0.217 HD
ENDBRANCH   7  49
BRANCH  10  51
HETATM   51  O   UNK N   1     -23.903  27.430  -6.304  0.00  0.00    -0.361 OA
HETATM   52  H   UNK N   1     -23.946  28.388  -6.170  0.00  0.00     0.217 HD
ENDBRANCH  10  51
TORSDOF 13
ENDMDL
MODEL 7
REMARK VINA RESULT:      -7.8     14.282     18.424
REMARK  13 active torsions:
REMARK  status: ('A' for Active; 'I' for Inactive)
REMARK    1  A    between atoms: O_3  and  C_14 
REMARK    2  A    between atoms: O_4  and  C_20 
REMARK    3  A    between atoms: O_5  and  C_24 
REMARK    4  A    between atoms: O_6  and  C_27 
REMARK    5  A    between atoms: O_7  and  C_26 
REMARK    6  A    between atoms: O_8  and  C_33 
REMARK    7  A    between atoms: O_9  and  C_37 
REMARK    8  A    between atoms: O_10  and  C_39 
REMARK    9  A    between atoms: O_11  and  C_40 
REMARK   10  A    between atoms: O_12  and  C_42 
REMARK   11  A    between atoms: C_13  and  C_15 
REMARK   12  A    between atoms: C_16  and  C_25 
REMARK   13  A    between atoms: C_21  and  C_29 
ROOT
HETATM    1  O   UNK N   1     -15.040  17.727  -3.882  0.00  0.00    -0.338 OA
HETATM    2  C   UNK N   1     -12.631  18.216  -5.366  0.00  0.00     0.094 C 
HETATM    3  C   UNK N   1     -14.038  18.687  -5.831  0.00  0.00     0.165 C 
HETATM    4  C   UNK N   1     -14.942  18.906  -4.608  0.00  0.00     0.191 C 
HETATM    5  C   UNK N   1     -12.717  17.186  -4.243  0.00  0.00     0.020 A 
HETATM    6  C   UNK N   1     -13.946  16.985  -3.567  0.00  0.00     0.082 A 
HETATM    7  C   UNK N   1     -11.581  16.454  -3.850  0.00  0.00     0.078 A 
HETATM    8  C   UNK N   1     -14.035  16.031  -2.548  0.00  0.00     0.074 A 
HETATM    9  C   UNK N   1     -11.682  15.514  -2.812  0.00  0.00     0.073 A 
HETATM   10  C   UNK N   1     -12.908  15.298  -2.167  0.00  0.00     0.071 A 
ENDROOT
BRANCH   2  11
HETATM   11  C   UNK N   1     -11.714  19.400  -5.022  0.00  0.00     0.020 A 
HETATM   12  C   UNK N   1     -10.559  19.621  -5.813  0.00  0.00     0.088 A 
HETATM   13  O   UNK N   1     -10.304  18.818  -6.883  0.00  0.00    -0.337 OA
HETATM   14  C   UNK N   1      -9.678  20.684  -5.515  0.00  0.00     0.012 A 
HETATM   15  C   UNK N   1      -9.394  19.168  -7.872  0.00  0.00     0.191 C 
HETATM   16  C   UNK N   1      -8.100  19.656  -7.211  0.00  0.00     0.156 C 
HETATM   17  C   UNK N   1      -8.430  20.890  -6.352  0.00  0.00     0.079 C 
HETATM   18  C   UNK N   1      -9.971  21.563  -4.463  0.00  0.00     0.077 A 
HETATM   19  C   UNK N   1     -11.120  21.364  -3.693  0.00  0.00     0.074 A 
HETATM   20  C   UNK N   1     -11.987  20.297  -3.955  0.00  0.00     0.078 A 
BRANCH  15  21
HETATM   21  C   UNK N   1      -9.139  18.012  -8.808  0.00  0.00    -0.024 A 
HETATM   22  C   UNK N   1      -9.694  16.743  -8.563  0.00  0.00     0.049 A 
HETATM   23  C   UNK N   1      -9.435  15.674  -9.435  0.00  0.00     0.099 A 
HETATM   24  C   UNK N   1      -8.611  15.870 -10.554  0.00  0.00     0.098 A 
HETATM   25  C   UNK N   1      -8.053  17.133 -10.796  0.00  0.00     0.040 A 
HETATM   26  C   UNK N   1      -8.317  18.197  -9.932  0.00  0.00     0.013 A 
BRANCH  23  27
HETATM   27  O   UNK N   1      -9.971  14.459  -9.203  0.00  0.00    -0.358 OA
HETATM   28  H   UNK N   1     -10.863  14.357  -8.842  0.00  0.00     0.218 HD
ENDBRANCH  23  27
BRANCH  24  29
HETATM   29  O   UNK N   1      -8.358  14.840 -11.388  0.00  0.00    -0.358 OA
HETATM   30  H   UNK N   1      -7.637  14.874 -12.033  0.00  0.00     0.218 HD
ENDBRANCH  24  29
ENDBRANCH  15  21
BRANCH  16  31
HETATM   31  O   UNK N   1      -7.574  18.647  -6.383  0.00  0.00    -0.392 OA
HETATM   32  H   UNK N   1      -8.252  18.467  -5.681  0.00  0.00     0.210 HD
ENDBRANCH  16  31
BRANCH  18  33
HETATM   33  O   UNK N   1      -9.142  22.592  -4.192  0.00  0.00    -0.360 OA
HETATM   34  H   UNK N   1      -8.886  22.817  -3.285  0.00  0.00     0.217 HD
ENDBRANCH  18  33
BRANCH  20  35
HETATM   35  O   UNK N   1     -13.085  20.138  -3.184  0.00  0.00    -0.360 OA
HETATM   36  H   UNK N   1     -13.433  19.264  -2.960  0.00  0.00     0.217 HD
ENDBRANCH  20  35
ENDBRANCH   2  11
BRANCH   3  37
HETATM   37  O   UNK N   1     -14.619  17.751  -6.711  0.00  0.00    -0.392 OA
HETATM   38  H   UNK N   1     -14.277  17.918  -7.627  0.00  0.00     0.210 HD
ENDBRANCH   3  37
BRANCH   4  39
HETATM   39  C   UNK N   1     -16.306  19.415  -5.007  0.00  0.00    -0.024 A 
HETATM   40  C   UNK N   1     -16.420  20.284  -6.101  0.00  0.00     0.049 A 
HETATM   41  C   UNK N   1     -17.673  20.756  -6.509  0.00  0.00     0.099 A 
HETATM   42  C   UNK N   1     -18.829  20.363  -5.808  0.00  0.00     0.098 A 
HETATM   43  C   UNK N   1     -18.716  19.498  -4.713  0.00  0.00     0.040 A 
HETATM   44  C   UNK N   1     -17.464  19.020  -4.315  0.00  0.00     0.013 A 
BRANCH  41  45
HETATM   45  O   UNK N   1     -17.773  21.581  -7.571  0.00  0.00    -0.358 OA
HETATM   46  H   UNK N   1     -17.617  21.266  -8.474  0.00  0.00     0.218 HD
ENDBRANCH  41  45
BRANCH  42  47
HETATM   47  O   UNK N   1     -20.051  20.804  -6.177  0.00  0.00    -0.358 OA
HETATM   48  H   UNK N   1     -20.679  20.242  -6.651  0.00  0.00     0.218 HD
ENDBRANCH  42  47
ENDBRANCH   4  39
BRANCH   7  49
HETATM   49  O   UNK N   1     -10.398  16.658  -4.467  0.00  0.00    -0.360 OA
HETATM   50  H   UNK N   1      -9.565  16.686  -3.976  0.00  0.00     0.217 HD
ENDBRANCH   7  49
BRANCH  10  51
HETATM   51  O   UNK N   1     -13.008  14.394  -1.170  0.00  0.00    -0.361 OA
HETATM   52  H   UNK N   1     -12.761  13.467  -1.298  0.00  0.00     0.217 HD
ENDBRANCH  10  51
TORSDOF 13
ENDMDL
MODEL 8
REMARK VINA RESULT:      -7.7     26.827     32.476
REMARK  13 active torsions:
REMARK  status: ('A' for Active; 'I' for Inactive)
REMARK    1  A    between atoms: O_3  and  C_14 
REMARK    2  A    between atoms: O_4  and  C_20 
REMARK    3  A    between atoms: O_5  and  C_24 
REMARK    4  A    between atoms: O_6  and  C_27 
REMARK    5  A    between atoms: O_7  and  C_26 
REMARK    6  A    between atoms: O_8  and  C_33 
REMARK    7  A    between atoms: O_9  and  C_37 
REMARK    8  A    between atoms: O_10  and  C_39 
REMARK    9  A    between atoms: O_11  and  C_40 
REMARK   10  A    between atoms: O_12  and  C_42 
REMARK   11  A    between atoms: C_13  and  C_15 
REMARK   12  A    between atoms: C_16  and  C_25 
REMARK   13  A    between atoms: C_21  and  C_29 
ROOT
HETATM    1  O   UNK N   1     -27.787  -5.392 -12.963  0.00  0.00    -0.338 OA
HETATM    2  C   UNK N   1     -30.379  -6.626 -12.924  0.00  0.00     0.094 C 
HETATM    3  C   UNK N   1     -30.145  -5.129 -13.276  0.00  0.00     0.165 C 
HETATM    4  C   UNK N   1     -28.739  -4.951 -13.872  0.00  0.00     0.191 C 
HETATM    5  C   UNK N   1     -29.152  -7.258 -12.275  0.00  0.00     0.020 A 
HETATM    6  C   UNK N   1     -27.908  -6.581 -12.318  0.00  0.00     0.082 A 
HETATM    7  C   UNK N   1     -29.234  -8.522 -11.660  0.00  0.00     0.078 A 
HETATM    8  C   UNK N   1     -26.783  -7.148 -11.710  0.00  0.00     0.074 A 
HETATM    9  C   UNK N   1     -28.092  -9.086 -11.072  0.00  0.00     0.073 A 
HETATM   10  C   UNK N   1     -26.870  -8.398 -11.090  0.00  0.00     0.071 A 
ENDROOT
BRANCH   2  11
HETATM   11  C   UNK N   1     -30.896  -7.425 -14.131  0.00  0.00     0.020 A 
HETATM   12  C   UNK N   1     -29.959  -7.924 -15.071  0.00  0.00     0.088 A 
HETATM   13  O   UNK N   1     -28.627  -7.731 -14.869  0.00  0.00    -0.337 OA
HETATM   14  C   UNK N   1     -30.396  -8.643 -16.206  0.00  0.00     0.012 A 
HETATM   15  C   UNK N   1     -27.662  -8.456 -15.556  0.00  0.00     0.191 C 
HETATM   16  C   UNK N   1     -28.012  -8.469 -17.048  0.00  0.00     0.156 C 
HETATM   17  C   UNK N   1     -29.384  -9.145 -17.218  0.00  0.00     0.079 C 
HETATM   18  C   UNK N   1     -31.760  -8.913 -16.382  0.00  0.00     0.077 A 
HETATM   19  C   UNK N   1     -32.686  -8.443 -15.448  0.00  0.00     0.074 A 
HETATM   20  C   UNK N   1     -32.274  -7.702 -14.334  0.00  0.00     0.078 A 
BRANCH  15  21
HETATM   21  C   UNK N   1     -26.283  -7.891 -15.312  0.00  0.00    -0.024 A 
HETATM   22  C   UNK N   1     -25.212  -8.724 -14.944  0.00  0.00     0.049 A 
HETATM   23  C   UNK N   1     -23.940  -8.181 -14.706  0.00  0.00     0.099 A 
HETATM   24  C   UNK N   1     -23.737  -6.799 -14.828  0.00  0.00     0.098 A 
HETATM   25  C   UNK N   1     -24.805  -5.967 -15.190  0.00  0.00     0.040 A 
HETATM   26  C   UNK N   1     -26.068  -6.508 -15.433  0.00  0.00     0.013 A 
BRANCH  23  27
HETATM   27  O   UNK N   1     -22.911  -8.981 -14.359  0.00  0.00    -0.358 OA
HETATM   28  H   UNK N   1     -23.054  -9.846 -13.949  0.00  0.00     0.218 HD
ENDBRANCH  23  27
BRANCH  24  29
HETATM   29  O   UNK N   1     -22.514  -6.278 -14.594  0.00  0.00    -0.358 OA
HETATM   30  H   UNK N   1     -22.198  -5.493 -15.064  0.00  0.00     0.218 HD
ENDBRANCH  24  29
ENDBRANCH  15  21
BRANCH  16  31
HETATM   31  O   UNK N   1     -28.086  -7.151 -17.534  0.00  0.00    -0.392 OA
HETATM   32  H   UNK N   1     -28.163  -7.211 -18.522  0.00  0.00     0.210 HD
ENDBRANCH  16  31
BRANCH  18  33
HETATM   33  O   UNK N   1     -32.176  -9.619 -17.455  0.00  0.00    -0.360 OA
HETATM   34  H   UNK N   1     -31.555  -9.949 -18.121  0.00  0.00     0.217 HD
ENDBRANCH  18  33
BRANCH  20  35
HETATM   35  O   UNK N   1     -33.203  -7.263 -13.458  0.00  0.00    -0.360 OA
HETATM   36  H   UNK N   1     -33.221  -7.559 -12.537  0.00  0.00     0.217 HD
ENDBRANCH  20  35
ENDBRANCH   2  11
BRANCH   3  37
HETATM   37  O   UNK N   1     -30.304  -4.311 -12.139  0.00  0.00    -0.392 OA
HETATM   38  H   UNK N   1     -29.611  -4.552 -11.472  0.00  0.00     0.210 HD
ENDBRANCH   3  37
BRANCH   4  39
HETATM   39  C   UNK N   1     -28.483  -3.521 -14.279  0.00  0.00    -0.024 A 
HETATM   40  C   UNK N   1     -28.842  -3.100 -15.568  0.00  0.00     0.049 A 
HETATM   41  C   UNK N   1     -28.638  -1.774 -15.967  0.00  0.00     0.099 A 
HETATM   42  C   UNK N   1     -28.058  -0.856 -15.071  0.00  0.00     0.098 A 
HETATM   43  C   UNK N   1     -27.695  -1.275 -13.785  0.00  0.00     0.040 A 
HETATM   44  C   UNK N   1     -27.911  -2.598 -13.386  0.00  0.00     0.013 A 
BRANCH  41  45
HETATM   45  O   UNK N   1     -28.999  -1.376 -17.204  0.00  0.00    -0.358 OA
HETATM   46  H   UNK N   1     -29.867  -0.981 -17.377  0.00  0.00     0.218 HD
ENDBRANCH  41  45
BRANCH  42  47
HETATM   47  O   UNK N   1     -27.847   0.428 -15.429  0.00  0.00    -0.358 OA
HETATM   48  H   UNK N   1     -27.937   0.729 -16.344  0.00  0.00     0.218 HD
ENDBRANCH  42  47
ENDBRANCH   4  39
BRANCH   7  49
HETATM   49  O   UNK N   1     -30.407  -9.189 -11.640  0.00  0.00    -0.360 OA
HETATM   50  H   UNK N   1     -30.493 -10.081 -12.005  0.00  0.00     0.217 HD
ENDBRANCH   7  49
BRANCH  10  51
HETATM   51  O   UNK N   1     -25.770  -8.938 -10.524  0.00  0.00    -0.361 OA
HETATM   52  H   UNK N   1     -24.879  -8.678 -10.798  0.00  0.00     0.217 HD
ENDBRANCH  10  51
TORSDOF 13
ENDMDL
MODEL 9
REMARK VINA RESULT:      -7.6     15.279     18.644
REMARK  13 active torsions:
REMARK  status: ('A' for Active; 'I' for Inactive)
REMARK    1  A    between atoms: O_3  and  C_14 
REMARK    2  A    between atoms: O_4  and  C_20 
REMARK    3  A    between atoms: O_5  and  C_24 
REMARK    4  A    between atoms: O_6  and  C_27 
REMARK    5  A    between atoms: O_7  and  C_26 
REMARK    6  A    between atoms: O_8  and  C_33 
REMARK    7  A    between atoms: O_9  and  C_37 
REMARK    8  A    between atoms: O_10  and  C_39 
REMARK    9  A    between atoms: O_11  and  C_40 
REMARK   10  A    between atoms: O_12  and  C_42 
REMARK   11  A    between atoms: C_13  and  C_15 
REMARK   12  A    between atoms: C_16  and  C_25 
REMARK   13  A    between atoms: C_21  and  C_29 
ROOT
HETATM    1  O   UNK N   1      -8.740  18.291  -7.573  0.00  0.00    -0.338 OA
HETATM    2  C   UNK N   1     -10.877  17.948  -5.687  0.00  0.00     0.094 C 
HETATM    3  C   UNK N   1     -10.696  17.062  -6.951  0.00  0.00     0.165 C 
HETATM    4  C   UNK N   1      -9.210  17.006  -7.338  0.00  0.00     0.191 C 
HETATM    5  C   UNK N   1     -10.022  19.210  -5.748  0.00  0.00     0.020 A 
HETATM    6  C   UNK N   1      -8.995  19.316  -6.719  0.00  0.00     0.082 A 
HETATM    7  C   UNK N   1     -10.219  20.259  -4.830  0.00  0.00     0.078 A 
HETATM    8  C   UNK N   1      -8.219  20.477  -6.791  0.00  0.00     0.074 A 
HETATM    9  C   UNK N   1      -9.419  21.409  -4.902  0.00  0.00     0.073 A 
HETATM   10  C   UNK N   1      -8.425  21.522  -5.885  0.00  0.00     0.071 A 
ENDROOT
BRANCH   2  11
HETATM   11  C   UNK N   1     -10.671  17.148  -4.391  0.00  0.00     0.020 A 
HETATM   12  C   UNK N   1     -11.810  16.684  -3.687  0.00  0.00     0.088 A 
HETATM   13  O   UNK N   1     -13.056  16.911  -4.186  0.00  0.00    -0.337 OA
HETATM   14  C   UNK N   1     -11.663  15.966  -2.479  0.00  0.00     0.012 A 
HETATM   15  C   UNK N   1     -14.172  16.219  -3.734  0.00  0.00     0.191 C 
HETATM   16  C   UNK N   1     -14.170  16.213  -2.201  0.00  0.00     0.156 C 
HETATM   17  C   UNK N   1     -12.892  15.501  -1.721  0.00  0.00     0.079 C 
HETATM   18  C   UNK N   1     -10.383  15.661  -1.997  0.00  0.00     0.077 A 
HETATM   19  C   UNK N   1      -9.256  16.096  -2.698  0.00  0.00     0.074 A 
HETATM   20  C   UNK N   1      -9.383  16.836  -3.879  0.00  0.00     0.078 A 
BRANCH  15  21
HETATM   21  C   UNK N   1     -15.443  16.818  -4.286  0.00  0.00    -0.024 A 
HETATM   22  C   UNK N   1     -15.412  17.713  -5.371  0.00  0.00     0.049 A 
HETATM   23  C   UNK N   1     -16.601  18.273  -5.863  0.00  0.00     0.099 A 
HETATM   24  C   UNK N   1     -17.826  17.947  -5.264  0.00  0.00     0.098 A 
HETATM   25  C   UNK N   1     -17.858  17.061  -4.180  0.00  0.00     0.040 A 
HETATM   26  C   UNK N   1     -16.676  16.498  -3.695  0.00  0.00     0.013 A 
BRANCH  23  27
HETATM   27  O   UNK N   1     -16.571  19.127  -6.908  0.00  0.00    -0.358 OA
HETATM   28  H   UNK N   1     -15.880  19.080  -7.584  0.00  0.00     0.218 HD
ENDBRANCH  23  27
BRANCH  24  29
HETATM   29  O   UNK N   1     -18.968  18.492  -5.736  0.00  0.00    -0.358 OA
HETATM   30  H   UNK N   1     -19.209  19.409  -5.544  0.00  0.00     0.218 HD
ENDBRANCH  24  29
ENDBRANCH  15  21
BRANCH  16  31
HETATM   31  O   UNK N   1     -14.171  17.533  -1.716  0.00  0.00    -0.392 OA
HETATM   32  H   UNK N   1     -14.178  17.477  -0.725  0.00  0.00     0.210 HD
ENDBRANCH  16  31
BRANCH  18  33
HETATM   33  O   UNK N   1     -10.242  14.955  -0.855  0.00  0.00    -0.360 OA
HETATM   34  H   UNK N   1      -9.632  14.206  -0.789  0.00  0.00     0.217 HD
ENDBRANCH  18  33
BRANCH  20  35
HETATM   35  O   UNK N   1      -8.267  17.241  -4.524  0.00  0.00    -0.360 OA
HETATM   36  H   UNK N   1      -7.900  18.128  -4.407  0.00  0.00     0.217 HD
ENDBRANCH  20  35
ENDBRANCH   2  11
BRANCH   3  37
HETATM   37  O   UNK N   1     -11.465  17.551  -8.027  0.00  0.00    -0.392 OA
HETATM   38  H   UNK N   1     -12.323  17.055  -8.058  0.00  0.00     0.210 HD
ENDBRANCH   3  37
BRANCH   4  39
HETATM   39  C   UNK N   1      -8.976  16.113  -8.531  0.00  0.00    -0.024 A 
HETATM   40  C   UNK N   1      -8.902  16.683  -9.810  0.00  0.00     0.049 A 
HETATM   41  C   UNK N   1      -8.664  15.883 -10.934  0.00  0.00     0.099 A 
HETATM   42  C   UNK N   1      -8.507  14.493 -10.781  0.00  0.00     0.098 A 
HETATM   43  C   UNK N   1      -8.584  13.922  -9.506  0.00  0.00     0.040 A 
HETATM   44  C   UNK N   1      -8.811  14.725  -8.384  0.00  0.00     0.013 A 
BRANCH  41  45
HETATM   45  O   UNK N   1      -8.581  16.444 -12.158  0.00  0.00    -0.358 OA
HETATM   46  H   UNK N   1      -9.154  17.181 -12.419  0.00  0.00     0.218 HD
ENDBRANCH  41  45
BRANCH  42  47
HETATM   47  O   UNK N   1      -8.279  13.697 -11.848  0.00  0.00    -0.358 OA
HETATM   48  H   UNK N   1      -7.492  13.139 -11.915  0.00  0.00     0.218 HD
ENDBRANCH  42  47
ENDBRANCH   4  39
BRANCH   7  49
HETATM   49  O   UNK N   1     -11.174  20.156  -3.882  0.00  0.00    -0.360 OA
HETATM   50  H   UNK N   1     -10.990  19.774  -3.012  0.00  0.00     0.217 HD
ENDBRANCH   7  49
BRANCH  10  51
HETATM   51  O   UNK N   1      -7.655  22.627  -5.958  0.00  0.00    -0.361 OA
HETATM   52  H   UNK N   1      -8.040  23.508  -6.074  0.00  0.00     0.217 HD
ENDBRANCH  10  51
TORSDOF 13
ENDMDL
