MODEL 1
REMARK VINA RESULT:      -5.4      0.000      0.000
REMARK  0 active torsions:
REMARK  status: ('A' for Active; 'I' for Inactive)
ROOT
HETATM    1  O   UNK N   1     -18.970  22.258  -8.713  0.00  0.00    -0.265 OA
HETATM    2  O   UNK N   1     -15.828  19.826 -10.911  0.00  0.00    -0.246 OA
HETATM    3  N   UNK N   1     -15.970  19.590  -8.665  0.00  0.00    -0.287 N 
HETATM    4  N   UNK N   1     -17.424  21.078  -9.900  0.00  0.00    -0.269 N 
HETATM    5  N   UNK N   1     -18.051  21.050  -6.277  0.00  0.00    -0.345 N 
HETATM    6  N   UNK N   1     -16.366  19.556  -6.279  0.00  0.00    -0.336 N 
ATOM      7  HN  UNK N   1     -15.665  18.885  -5.968  1.00  0.00     0.168 HD
HETATM    8  C   UNK N   1     -16.612  19.977  -7.534  0.00  0.00     0.145 A 
HETATM    9  C   UNK N   1     -17.622  20.872  -7.535  0.00  0.00     0.147 A 
HETATM   10  C   UNK N   1     -18.057  21.449  -8.718  0.00  0.00     0.281 A 
HETATM   11  C   UNK N   1     -16.381  20.149  -9.871  0.00  0.00     0.332 A 
HETATM   12  C   UNK N   1     -14.881  18.611  -8.587  0.00  0.00     0.163 C 
HETATM   13  C   UNK N   1     -17.829  21.645 -11.195  0.00  0.00     0.164 C 
HETATM   14  C   UNK N   1     -17.269  20.235  -5.527  0.00  0.00     0.182 A 
HETATM   15  H   UNK N   1     -18.817  21.674  -5.938  0.00  0.00     0.167 HD
ENDROOT
TORSDOF 0
ENDMDL
MODEL 2
REMARK VINA RESULT:      -5.3      4.195      6.010
REMARK  0 active torsions:
REMARK  status: ('A' for Active; 'I' for Inactive)
ROOT
HETATM    1  O   UNK N   1     -17.547  21.553 -15.552  0.00  0.00    -0.265 OA
HETATM    2  O   UNK N   1     -19.715  24.780 -13.207  0.00  0.00    -0.246 OA
HETATM    3  N   UNK N   1     -18.917  22.997 -12.067  0.00  0.00    -0.287 N 
HETATM    4  N   UNK N   1     -18.648  23.221 -14.460  0.00  0.00    -0.269 N 
HETATM    5  N   UNK N   1     -17.177  20.148 -13.078  0.00  0.00    -0.345 N 
HETATM    6  N   UNK N   1     -17.956  20.982 -11.136  0.00  0.00    -0.336 N 
ATOM      7  HN  UNK N   1     -18.178  21.090 -10.147  1.00  0.00     0.168 HD
HETATM    8  C   UNK N   1     -18.252  21.817 -12.149  0.00  0.00     0.145 A 
HETATM    9  C   UNK N   1     -17.786  21.320 -13.314  0.00  0.00     0.147 A 
HETATM   10  C   UNK N   1     -17.971  22.007 -14.503  0.00  0.00     0.281 A 
HETATM   11  C   UNK N   1     -19.120  23.714 -13.241  0.00  0.00     0.332 A 
HETATM   12  C   UNK N   1     -19.394  23.475 -10.764  0.00  0.00     0.163 C 
HETATM   13  C   UNK N   1     -18.883  24.010 -15.679  0.00  0.00     0.164 C 
HETATM   14  C   UNK N   1     -17.293  19.962 -11.739  0.00  0.00     0.182 A 
HETATM   15  H   UNK N   1     -16.713  19.511 -13.763  0.00  0.00     0.167 HD
ENDROOT
TORSDOF 0
ENDMDL
MODEL 3
REMARK VINA RESULT:      -5.2      3.819      5.490
REMARK  0 active torsions:
REMARK  status: ('A' for Active; 'I' for Inactive)
ROOT
HETATM    1  O   UNK N   1     -18.958  22.509  -9.822  0.00  0.00    -0.265 OA
HETATM    2  O   UNK N   1     -19.458  24.480 -13.882  0.00  0.00    -0.246 OA
HETATM    3  N   UNK N   1     -18.378  22.494 -13.794  0.00  0.00    -0.287 N 
HETATM    4  N   UNK N   1     -19.256  23.572 -11.815  0.00  0.00    -0.269 N 
HETATM    5  N   UNK N   1     -17.588  20.365 -11.147  0.00  0.00    -0.345 N 
HETATM    6  N   UNK N   1     -17.276  20.382 -13.377  0.00  0.00    -0.336 N 
ATOM      7  HN  UNK N   1     -16.992  20.113 -14.319  1.00  0.00     0.168 HD
HETATM    8  C   UNK N   1     -17.940  21.489 -12.995  0.00  0.00     0.145 A 
HETATM    9  C   UNK N   1     -18.128  21.481 -11.659  0.00  0.00     0.147 A 
HETATM   10  C   UNK N   1     -18.792  22.522 -11.030  0.00  0.00     0.281 A 
HETATM   11  C   UNK N   1     -19.049  23.556 -13.196  0.00  0.00     0.332 A 
HETATM   12  C   UNK N   1     -18.137  22.434 -15.240  0.00  0.00     0.163 C 
HETATM   13  C   UNK N   1     -19.971  24.713 -11.221  0.00  0.00     0.164 C 
HETATM   14  C   UNK N   1     -17.072  19.708 -12.217  0.00  0.00     0.182 A 
HETATM   15  H   UNK N   1     -17.562  20.058 -10.149  0.00  0.00     0.167 HD
ENDROOT
TORSDOF 0
ENDMDL
MODEL 4
REMARK VINA RESULT:      -5.2      2.476      3.433
REMARK  0 active torsions:
REMARK  status: ('A' for Active; 'I' for Inactive)
ROOT
HETATM    1  O   UNK N   1     -19.267  24.231 -10.672  0.00  0.00    -0.265 OA
HETATM    2  O   UNK N   1     -17.938  21.461 -14.015  0.00  0.00    -0.246 OA
HETATM    3  N   UNK N   1     -17.490  20.843 -11.885  0.00  0.00    -0.287 N 
HETATM    4  N   UNK N   1     -18.638  22.905 -12.414  0.00  0.00    -0.269 N 
HETATM    5  N   UNK N   1     -18.149  22.354  -8.812  0.00  0.00    -0.345 N 
HETATM    6  N   UNK N   1     -17.157  20.461  -9.520  0.00  0.00    -0.336 N 
ATOM      7  HN  UNK N   1     -16.671  19.565  -9.527  1.00  0.00     0.168 HD
HETATM    8  C   UNK N   1     -17.600  21.172 -10.574  0.00  0.00     0.145 A 
HETATM    9  C   UNK N   1     -18.194  22.307 -10.152  0.00  0.00     0.147 A 
HETATM   10  C   UNK N   1     -18.731  23.207 -11.060  0.00  0.00     0.281 A 
HETATM   11  C   UNK N   1     -18.018  21.723 -12.824  0.00  0.00     0.332 A 
HETATM   12  C   UNK N   1     -16.830  19.590 -12.270  0.00  0.00     0.163 C 
HETATM   13  C   UNK N   1     -19.184  23.808 -13.438  0.00  0.00     0.164 C 
HETATM   14  C   UNK N   1     -17.510  21.214  -8.448  0.00  0.00     0.182 A 
HETATM   15  H   UNK N   1     -18.519  23.097  -8.178  0.00  0.00     0.167 HD
ENDROOT
TORSDOF 0
ENDMDL
MODEL 5
REMARK VINA RESULT:      -5.2      1.250      3.164
REMARK  0 active torsions:
REMARK  status: ('A' for Active; 'I' for Inactive)
ROOT
HETATM    1  O   UNK N   1     -17.146  21.359 -11.265  0.00  0.00    -0.265 OA
HETATM    2  O   UNK N   1     -19.356  22.110  -7.370  0.00  0.00    -0.246 OA
HETATM    3  N   UNK N   1     -17.626  20.652  -7.343  0.00  0.00    -0.287 N 
HETATM    4  N   UNK N   1     -18.314  21.798  -9.359  0.00  0.00    -0.269 N 
HETATM    5  N   UNK N   1     -15.455  19.536  -9.834  0.00  0.00    -0.345 N 
HETATM    6  N   UNK N   1     -15.746  19.158  -7.633  0.00  0.00    -0.336 N 
ATOM      7  HN  UNK N   1     -15.630  18.794  -6.688  1.00  0.00     0.168 HD
HETATM    8  C   UNK N   1     -16.657  20.046  -8.074  0.00  0.00     0.145 A 
HETATM    9  C   UNK N   1     -16.484  20.274  -9.392  0.00  0.00     0.147 A 
HETATM   10  C   UNK N   1     -17.307  21.157 -10.073  0.00  0.00     0.281 A 
HETATM   11  C   UNK N   1     -18.471  21.545  -7.995  0.00  0.00     0.332 A 
HETATM   12  C   UNK N   1     -17.753  20.355  -5.912  0.00  0.00     0.163 C 
HETATM   13  C   UNK N   1     -19.227  22.750 -10.010  0.00  0.00     0.164 C 
HETATM   14  C   UNK N   1     -15.019  18.862  -8.740  0.00  0.00     0.182 A 
HETATM   15  H   UNK N   1     -15.065  19.483 -10.801  0.00  0.00     0.167 HD
ENDROOT
TORSDOF 0
ENDMDL
MODEL 6
REMARK VINA RESULT:      -5.1      1.781      3.311
REMARK  0 active torsions:
REMARK  status: ('A' for Active; 'I' for Inactive)
ROOT
HETATM    1  O   UNK N   1     -17.507  20.239  -5.542  0.00  0.00    -0.265 OA
HETATM    2  O   UNK N   1     -14.721  18.401  -8.621  0.00  0.00    -0.246 OA
HETATM    3  N   UNK N   1     -16.227  19.932  -9.334  0.00  0.00    -0.287 N 
HETATM    4  N   UNK N   1     -16.068  19.264  -7.015  0.00  0.00    -0.269 N 
HETATM    5  N   UNK N   1     -18.671  21.778  -7.666  0.00  0.00    -0.345 N 
HETATM    6  N   UNK N   1     -17.933  21.586  -9.785  0.00  0.00    -0.336 N 
ATOM      7  HN  UNK N   1     -17.827  21.717 -10.790  1.00  0.00     0.168 HD
HETATM    8  C   UNK N   1     -17.234  20.767  -8.977  0.00  0.00     0.145 A 
HETATM    9  C   UNK N   1     -17.675  20.881  -7.706  0.00  0.00     0.147 A 
HETATM   10  C   UNK N   1     -17.104  20.132  -6.689  0.00  0.00     0.281 A 
HETATM   11  C   UNK N   1     -15.632  19.165  -8.338  0.00  0.00     0.332 A 
HETATM   12  C   UNK N   1     -15.801  19.862 -10.737  0.00  0.00     0.163 C 
HETATM   13  C   UNK N   1     -15.412  18.437  -5.991  0.00  0.00     0.164 C 
HETATM   14  C   UNK N   1     -18.811  22.196  -8.949  0.00  0.00     0.182 A 
HETATM   15  H   UNK N   1     -19.224  22.093  -6.838  0.00  0.00     0.167 HD
ENDROOT
TORSDOF 0
ENDMDL
MODEL 7
REMARK VINA RESULT:      -5.1      1.667      3.816
REMARK  0 active torsions:
REMARK  status: ('A' for Active; 'I' for Inactive)
ROOT
HETATM    1  O   UNK N   1     -15.583  19.918 -10.705  0.00  0.00    -0.265 OA
HETATM    2  O   UNK N   1     -16.224  18.941  -6.317  0.00  0.00    -0.246 OA
HETATM    3  N   UNK N   1     -17.566  20.497  -7.264  0.00  0.00    -0.287 N 
HETATM    4  N   UNK N   1     -15.831  19.363  -8.509  0.00  0.00    -0.269 N 
HETATM    5  N   UNK N   1     -17.737  21.801 -10.494  0.00  0.00    -0.345 N 
HETATM    6  N   UNK N   1     -18.833  22.106  -8.551  0.00  0.00    -0.336 N 
ATOM      7  HN  UNK N   1     -19.489  22.453  -7.851  1.00  0.00     0.168 HD
HETATM    8  C   UNK N   1     -17.871  21.177  -8.397  0.00  0.00     0.145 A 
HETATM    9  C   UNK N   1     -17.213  20.993  -9.561  0.00  0.00     0.147 A 
HETATM   10  C   UNK N   1     -16.174  20.080  -9.650  0.00  0.00     0.281 A 
HETATM   11  C   UNK N   1     -16.528  19.573  -7.318  0.00  0.00     0.332 A 
HETATM   12  C   UNK N   1     -18.326  20.751  -6.034  0.00  0.00     0.163 C 
HETATM   13  C   UNK N   1     -14.740  18.376  -8.525  0.00  0.00     0.164 C 
HETATM   14  C   UNK N   1     -18.727  22.472  -9.853  0.00  0.00     0.182 A 
HETATM   15  H   UNK N   1     -17.456  21.901 -11.494  0.00  0.00     0.167 HD
ENDROOT
TORSDOF 0
ENDMDL
MODEL 8
REMARK VINA RESULT:      -5.1      1.574      3.098
REMARK  0 active torsions:
REMARK  status: ('A' for Active; 'I' for Inactive)
ROOT
HETATM    1  O   UNK N   1     -16.162  19.611  -6.343  0.00  0.00    -0.265 OA
HETATM    2  O   UNK N   1     -15.479  19.597 -10.832  0.00  0.00    -0.246 OA
HETATM    3  N   UNK N   1     -17.232  20.781 -10.031  0.00  0.00    -0.287 N 
HETATM    4  N   UNK N   1     -15.741  19.546  -8.581  0.00  0.00    -0.269 N 
HETATM    5  N   UNK N   1     -18.433  21.305  -6.798  0.00  0.00    -0.345 N 
HETATM    6  N   UNK N   1     -19.011  21.946  -8.878  0.00  0.00    -0.336 N 
ATOM      7  HN  UNK N   1     -19.502  22.385  -9.656  1.00  0.00     0.168 HD
HETATM    8  C   UNK N   1     -17.919  21.160  -8.924  0.00  0.00     0.145 A 
HETATM    9  C   UNK N   1     -17.571  20.775  -7.679  0.00  0.00     0.147 A 
HETATM   10  C   UNK N   1     -16.472  19.956  -7.471  0.00  0.00     0.281 A 
HETATM   11  C   UNK N   1     -16.123  19.959  -9.859  0.00  0.00     0.332 A 
HETATM   12  C   UNK N   1     -17.671  21.240 -11.354  0.00  0.00     0.163 C 
HETATM   13  C   UNK N   1     -14.562  18.678  -8.442  0.00  0.00     0.164 C 
HETATM   14  C   UNK N   1     -19.305  22.018  -7.555  0.00  0.00     0.182 A 
HETATM   15  H   UNK N   1     -18.442  21.201  -5.759  0.00  0.00     0.167 HD
ENDROOT
TORSDOF 0
ENDMDL
MODEL 9
REMARK VINA RESULT:      -4.9      1.923      4.527
REMARK  0 active torsions:
REMARK  status: ('A' for Active; 'I' for Inactive)
ROOT
HETATM    1  O   UNK N   1     -14.831  18.178  -7.914  0.00  0.00    -0.265 OA
HETATM    2  O   UNK N   1     -18.145  20.007  -5.407  0.00  0.00    -0.246 OA
HETATM    3  N   UNK N   1     -17.896  20.742  -7.533  0.00  0.00    -0.287 N 
HETATM    4  N   UNK N   1     -16.467  19.038  -6.582  0.00  0.00    -0.269 N 
HETATM    5  N   UNK N   1     -15.658  19.886 -10.066  0.00  0.00    -0.345 N 
HETATM    6  N   UNK N   1     -17.381  21.315  -9.825  0.00  0.00    -0.336 N 
ATOM      7  HN  UNK N   1     -18.083  22.028 -10.018  1.00  0.00     0.168 HD
HETATM    8  C   UNK N   1     -17.187  20.628  -8.684  0.00  0.00     0.145 A 
HETATM    9  C   UNK N   1     -16.155  19.771  -8.826  0.00  0.00     0.147 A 
HETATM   10  C   UNK N   1     -15.765  18.951  -7.779  0.00  0.00     0.281 A 
HETATM   11  C   UNK N   1     -17.531  19.934  -6.461  0.00  0.00     0.332 A 
HETATM   12  C   UNK N   1     -19.007  21.697  -7.452  0.00  0.00     0.163 C 
HETATM   13  C   UNK N   1     -16.113  18.201  -5.425  0.00  0.00     0.164 C 
HETATM   14  C   UNK N   1     -16.423  20.836 -10.659  0.00  0.00     0.182 A 
HETATM   15  H   UNK N   1     -14.859  19.366 -10.494  0.00  0.00     0.167 HD
ENDROOT
TORSDOF 0
ENDMDL
