MODEL 1
REMARK VINA RESULT:      -5.0      0.000      0.000
REMARK  4 active torsions:
REMARK  status: ('A' for Active; 'I' for Inactive)
REMARK    1  A    between atoms: O_1  and  C_6 
REMARK    2  A    between atoms: O_2  and  C_8 
REMARK    3  A    between atoms: C_3  and  C_4 
REMARK    4  A    between atoms: C_4  and  C_10 
ROOT
HETATM    1  C   UNK N   1     -30.325  40.215  -9.145  0.00  0.00    -0.052 A 
HETATM    2  C   UNK N   1     -30.075  41.512  -9.619  0.00  0.00     0.047 A 
HETATM    3  C   UNK N   1     -30.215  42.616  -8.768  0.00  0.00     0.101 A 
HETATM    4  C   UNK N   1     -30.712  40.032  -7.808  0.00  0.00     0.010 A 
HETATM    5  C   UNK N   1     -30.611  42.431  -7.436  0.00  0.00     0.099 A 
HETATM    6  C   UNK N   1     -30.856  41.134  -6.958  0.00  0.00     0.040 A 
ENDROOT
BRANCH   1   7
HETATM    7  C   UNK N   1     -30.178  39.031 -10.063  0.00  0.00     0.065 C 
BRANCH   7   8
HETATM    8  C   UNK N   1     -31.520  38.406 -10.325  0.00  0.00    -0.032 C 
HETATM    9  C   UNK N   1     -32.392  38.955 -11.175  0.00  0.00     0.007 C 
ENDBRANCH   7   8
ENDBRANCH   1   7
BRANCH   3  10
HETATM   10  O   UNK N   1     -29.965  43.858  -9.233  0.00  0.00    -0.353 OA
HETATM   11  C   UNK N   1     -30.678  44.379 -10.290  0.00  0.00     0.210 C 
ENDBRANCH   3  10
BRANCH   5  12
HETATM   12  O   UNK N   1     -30.751  43.503  -6.625  0.00  0.00    -0.358 OA
HETATM   13  H   UNK N   1     -31.035  43.417  -5.704  0.00  0.00     0.218 HD
ENDBRANCH   5  12
TORSDOF 4
ENDMDL
MODEL 2
REMARK VINA RESULT:      -4.9     23.944     25.506
REMARK  4 active torsions:
REMARK  status: ('A' for Active; 'I' for Inactive)
REMARK    1  A    between atoms: O_1  and  C_6 
REMARK    2  A    between atoms: O_2  and  C_8 
REMARK    3  A    between atoms: C_3  and  C_4 
REMARK    4  A    between atoms: C_4  and  C_10 
ROOT
HETATM    1  C   UNK N   1     -17.320  20.079  -7.334  0.00  0.00    -0.052 A 
HETATM    2  C   UNK N   1     -17.562  20.994  -8.371  0.00  0.00     0.047 A 
HETATM    3  C   UNK N   1     -16.845  20.908  -9.572  0.00  0.00     0.101 A 
HETATM    4  C   UNK N   1     -16.356  19.074  -7.512  0.00  0.00     0.010 A 
HETATM    5  C   UNK N   1     -15.876  19.909  -9.743  0.00  0.00     0.099 A 
HETATM    6  C   UNK N   1     -15.636  18.990  -8.709  0.00  0.00     0.040 A 
ENDROOT
BRANCH   1   7
HETATM    7  C   UNK N   1     -18.088  20.176  -6.043  0.00  0.00     0.065 C 
BRANCH   7   8
HETATM    8  C   UNK N   1     -18.505  18.808  -5.582  0.00  0.00    -0.032 C 
HETATM    9  C   UNK N   1     -18.253  18.382  -4.341  0.00  0.00     0.007 C 
ENDBRANCH   7   8
ENDBRANCH   1   7
BRANCH   3  10
HETATM   10  O   UNK N   1     -17.092  21.788 -10.565  0.00  0.00    -0.353 OA
HETATM   11  C   UNK N   1     -18.333  21.866 -11.155  0.00  0.00     0.210 C 
ENDBRANCH   3  10
BRANCH   5  12
HETATM   12  O   UNK N   1     -15.185  19.840 -10.901  0.00  0.00    -0.358 OA
HETATM   13  H   UNK N   1     -15.247  19.076 -11.493  0.00  0.00     0.218 HD
ENDBRANCH   5  12
TORSDOF 4
ENDMDL
MODEL 3
REMARK VINA RESULT:      -4.9     24.940     26.336
REMARK  4 active torsions:
REMARK  status: ('A' for Active; 'I' for Inactive)
REMARK    1  A    between atoms: O_1  and  C_6 
REMARK    2  A    between atoms: O_2  and  C_8 
REMARK    3  A    between atoms: C_3  and  C_4 
REMARK    4  A    between atoms: C_4  and  C_10 
ROOT
HETATM    1  C   UNK N   1     -16.501  20.049  -8.824  0.00  0.00    -0.052 A 
HETATM    2  C   UNK N   1     -17.030  20.111  -7.525  0.00  0.00     0.047 A 
HETATM    3  C   UNK N   1     -16.520  19.287  -6.513  0.00  0.00     0.101 A 
HETATM    4  C   UNK N   1     -15.453  19.157  -9.100  0.00  0.00     0.010 A 
HETATM    5  C   UNK N   1     -15.479  18.390  -6.794  0.00  0.00     0.099 A 
HETATM    6  C   UNK N   1     -14.946  18.330  -8.092  0.00  0.00     0.040 A 
ENDROOT
BRANCH   1   7
HETATM    7  C   UNK N   1     -17.054  20.933  -9.910  0.00  0.00     0.065 C 
BRANCH   7   8
HETATM    8  C   UNK N   1     -16.940  20.250 -11.244  0.00  0.00    -0.032 C 
HETATM    9  C   UNK N   1     -17.892  20.370 -12.174  0.00  0.00     0.007 C 
ENDBRANCH   7   8
ENDBRANCH   1   7
BRANCH   3  10
HETATM   10  O   UNK N   1     -17.031  19.360  -5.266  0.00  0.00    -0.353 OA
HETATM   11  C   UNK N   1     -16.762  20.436  -4.450  0.00  0.00     0.210 C 
ENDBRANCH   3  10
BRANCH   5  12
HETATM   12  O   UNK N   1     -15.000  17.594  -5.814  0.00  0.00    -0.358 OA
HETATM   13  H   UNK N   1     -14.942  16.633  -5.914  0.00  0.00     0.218 HD
ENDBRANCH   5  12
TORSDOF 4
ENDMDL
MODEL 4
REMARK VINA RESULT:      -4.9      1.392      1.745
REMARK  4 active torsions:
REMARK  status: ('A' for Active; 'I' for Inactive)
REMARK    1  A    between atoms: O_1  and  C_6 
REMARK    2  A    between atoms: O_2  and  C_8 
REMARK    3  A    between atoms: C_3  and  C_4 
REMARK    4  A    between atoms: C_4  and  C_10 
ROOT
HETATM    1  C   UNK N   1     -30.439  40.991  -8.442  0.00  0.00    -0.052 A 
HETATM    2  C   UNK N   1     -30.337  41.698  -9.651  0.00  0.00     0.047 A 
HETATM    3  C   UNK N   1     -30.430  43.096  -9.664  0.00  0.00     0.101 A 
HETATM    4  C   UNK N   1     -30.631  41.698  -7.245  0.00  0.00     0.010 A 
HETATM    5  C   UNK N   1     -30.632  43.798  -8.467  0.00  0.00     0.099 A 
HETATM    6  C   UNK N   1     -30.729  43.094  -7.256  0.00  0.00     0.040 A 
ENDROOT
BRANCH   1   7
HETATM    7  C   UNK N   1     -30.343  39.489  -8.431  0.00  0.00     0.065 C 
BRANCH   7   8
HETATM    8  C   UNK N   1     -29.914  38.986  -9.781  0.00  0.00    -0.032 C 
HETATM    9  C   UNK N   1     -30.335  37.809 -10.254  0.00  0.00     0.007 C 
ENDBRANCH   7   8
ENDBRANCH   1   7
BRANCH   3  10
HETATM   10  O   UNK N   1     -30.323  43.765 -10.831  0.00  0.00    -0.353 OA
HETATM   11  C   UNK N   1     -31.364  43.796 -11.731  0.00  0.00     0.210 C 
ENDBRANCH   3  10
BRANCH   5  12
HETATM   12  O   UNK N   1     -30.729  45.145  -8.491  0.00  0.00    -0.358 OA
HETATM   13  H   UNK N   1     -30.382  45.673  -9.225  0.00  0.00     0.218 HD
ENDBRANCH   5  12
TORSDOF 4
ENDMDL
MODEL 5
REMARK VINA RESULT:      -4.9     23.560     25.193
REMARK  4 active torsions:
REMARK  status: ('A' for Active; 'I' for Inactive)
REMARK    1  A    between atoms: O_1  and  C_6 
REMARK    2  A    between atoms: O_2  and  C_8 
REMARK    3  A    between atoms: C_3  and  C_4 
REMARK    4  A    between atoms: C_4  and  C_10 
ROOT
HETATM    1  C   UNK N   1     -17.928  20.999  -7.942  0.00  0.00    -0.052 A 
HETATM    2  C   UNK N   1     -17.072  19.909  -7.716  0.00  0.00     0.047 A 
HETATM    3  C   UNK N   1     -16.141  19.527  -8.691  0.00  0.00     0.101 A 
HETATM    4  C   UNK N   1     -17.838  21.707  -9.150  0.00  0.00     0.010 A 
HETATM    5  C   UNK N   1     -16.061  20.230  -9.902  0.00  0.00     0.099 A 
HETATM    6  C   UNK N   1     -16.912  21.324 -10.127  0.00  0.00     0.040 A 
ENDROOT
BRANCH   1   7
HETATM    7  C   UNK N   1     -18.930  21.405  -6.895  0.00  0.00     0.065 C 
BRANCH   7   8
HETATM    8  C   UNK N   1     -20.115  22.069  -7.540  0.00  0.00    -0.032 C 
HETATM    9  C   UNK N   1     -21.362  21.653  -7.304  0.00  0.00     0.007 C 
ENDBRANCH   7   8
ENDBRANCH   1   7
BRANCH   3  10
HETATM   10  O   UNK N   1     -15.319  18.482  -8.461  0.00  0.00    -0.353 OA
HETATM   11  C   UNK N   1     -14.629  18.368  -7.275  0.00  0.00     0.210 C 
ENDBRANCH   3  10
BRANCH   5  12
HETATM   12  O   UNK N   1     -15.165  19.848 -10.838  0.00  0.00    -0.358 OA
HETATM   13  H   UNK N   1     -15.314  19.997 -11.783  0.00  0.00     0.218 HD
ENDBRANCH   5  12
TORSDOF 4
ENDMDL
MODEL 6
REMARK VINA RESULT:      -4.8     22.309     24.016
REMARK  4 active torsions:
REMARK  status: ('A' for Active; 'I' for Inactive)
REMARK    1  A    between atoms: O_1  and  C_6 
REMARK    2  A    between atoms: O_2  and  C_8 
REMARK    3  A    between atoms: C_3  and  C_4 
REMARK    4  A    between atoms: C_4  and  C_10 
ROOT
HETATM    1  C   UNK N   1     -17.873  21.465 -10.239  0.00  0.00    -0.052 A 
HETATM    2  C   UNK N   1     -18.460  22.329 -11.177  0.00  0.00     0.047 A 
HETATM    3  C   UNK N   1     -18.329  22.080 -12.549  0.00  0.00     0.101 A 
HETATM    4  C   UNK N   1     -17.156  20.345 -10.689  0.00  0.00     0.010 A 
HETATM    5  C   UNK N   1     -17.604  20.965 -12.995  0.00  0.00     0.099 A 
HETATM    6  C   UNK N   1     -17.021  20.096 -12.059  0.00  0.00     0.040 A 
ENDROOT
BRANCH   1   7
HETATM    7  C   UNK N   1     -18.011  21.737  -8.766  0.00  0.00     0.065 C 
BRANCH   7   8
HETATM    8  C   UNK N   1     -17.287  20.686  -7.972  0.00  0.00    -0.032 C 
HETATM    9  C   UNK N   1     -17.683  20.343  -6.743  0.00  0.00     0.007 C 
ENDBRANCH   7   8
ENDBRANCH   1   7
BRANCH   3  10
HETATM   10  O   UNK N   1     -18.904  22.914 -13.441  0.00  0.00    -0.353 OA
HETATM   11  C   UNK N   1     -19.570  24.046 -13.029  0.00  0.00     0.210 C 
ENDBRANCH   3  10
BRANCH   5  12
HETATM   12  O   UNK N   1     -17.477  20.738 -14.321  0.00  0.00    -0.358 OA
HETATM   13  H   UNK N   1     -16.900  20.044 -14.670  0.00  0.00     0.218 HD
ENDBRANCH   5  12
TORSDOF 4
ENDMDL
MODEL 7
REMARK VINA RESULT:      -4.7     23.982     25.571
REMARK  4 active torsions:
REMARK  status: ('A' for Active; 'I' for Inactive)
REMARK    1  A    between atoms: O_1  and  C_6 
REMARK    2  A    between atoms: O_2  and  C_8 
REMARK    3  A    between atoms: C_3  and  C_4 
REMARK    4  A    between atoms: C_4  and  C_10 
ROOT
HETATM    1  C   UNK N   1     -16.945  19.618  -7.692  0.00  0.00    -0.052 A 
HETATM    2  C   UNK N   1     -16.483  19.524  -9.015  0.00  0.00     0.047 A 
HETATM    3  C   UNK N   1     -16.826  20.503  -9.956  0.00  0.00     0.101 A 
HETATM    4  C   UNK N   1     -17.749  20.707  -7.319  0.00  0.00     0.010 A 
HETATM    5  C   UNK N   1     -17.638  21.583  -9.583  0.00  0.00     0.099 A 
HETATM    6  C   UNK N   1     -18.097  21.683  -8.260  0.00  0.00     0.040 A 
ENDROOT
BRANCH   1   7
HETATM    7  C   UNK N   1     -16.579  18.563  -6.684  0.00  0.00     0.065 C 
BRANCH   7   8
HETATM    8  C   UNK N   1     -15.085  18.416  -6.603  0.00  0.00    -0.032 C 
HETATM    9  C   UNK N   1     -14.386  18.932  -5.589  0.00  0.00     0.007 C 
ENDBRANCH   7   8
ENDBRANCH   1   7
BRANCH   3  10
HETATM   10  O   UNK N   1     -16.371  20.405 -11.223  0.00  0.00    -0.353 OA
HETATM   11  C   UNK N   1     -17.067  19.697 -12.176  0.00  0.00     0.210 C 
ENDBRANCH   3  10
BRANCH   5  12
HETATM   12  O   UNK N   1     -17.970  22.518 -10.500  0.00  0.00    -0.358 OA
HETATM   13  H   UNK N   1     -17.820  22.386 -11.447  0.00  0.00     0.218 HD
ENDBRANCH   5  12
TORSDOF 4
ENDMDL
MODEL 8
REMARK VINA RESULT:      -4.7     23.593     25.193
REMARK  4 active torsions:
REMARK  status: ('A' for Active; 'I' for Inactive)
REMARK    1  A    between atoms: O_1  and  C_6 
REMARK    2  A    between atoms: O_2  and  C_8 
REMARK    3  A    between atoms: C_3  and  C_4 
REMARK    4  A    between atoms: C_4  and  C_10 
ROOT
HETATM    1  C   UNK N   1     -16.334  19.569  -8.488  0.00  0.00    -0.052 A 
HETATM    2  C   UNK N   1     -17.289  20.237  -7.706  0.00  0.00     0.047 A 
HETATM    3  C   UNK N   1     -17.985  21.337  -8.225  0.00  0.00     0.101 A 
HETATM    4  C   UNK N   1     -16.085  20.009  -9.798  0.00  0.00     0.010 A 
HETATM    5  C   UNK N   1     -17.727  21.780  -9.530  0.00  0.00     0.099 A 
HETATM    6  C   UNK N   1     -16.776  21.110 -10.317  0.00  0.00     0.040 A 
ENDROOT
BRANCH   1   7
HETATM    7  C   UNK N   1     -15.585  18.390  -7.927  0.00  0.00     0.065 C 
BRANCH   7   8
HETATM    8  C   UNK N   1     -15.157  18.671  -6.514  0.00  0.00    -0.032 C 
HETATM    9  C   UNK N   1     -15.431  17.822  -5.519  0.00  0.00     0.007 C 
ENDBRANCH   7   8
ENDBRANCH   1   7
BRANCH   3  10
HETATM   10  O   UNK N   1     -18.905  21.968  -7.467  0.00  0.00    -0.353 OA
HETATM   11  C   UNK N   1     -19.701  21.269  -6.587  0.00  0.00     0.210 C 
ENDBRANCH   3  10
BRANCH   5  12
HETATM   12  O   UNK N   1     -18.397  22.847 -10.019  0.00  0.00    -0.358 OA
HETATM   13  H   UNK N   1     -18.424  23.048 -10.965  0.00  0.00     0.218 HD
ENDBRANCH   5  12
TORSDOF 4
ENDMDL
MODEL 9
REMARK VINA RESULT:      -4.6     44.247     46.236
REMARK  4 active torsions:
REMARK  status: ('A' for Active; 'I' for Inactive)
REMARK    1  A    between atoms: O_1  and  C_6 
REMARK    2  A    between atoms: O_2  and  C_8 
REMARK    3  A    between atoms: C_3  and  C_4 
REMARK    4  A    between atoms: C_4  and  C_10 
ROOT
HETATM    1  C   UNK N   1     -26.302  -3.465 -12.827  0.00  0.00    -0.052 A 
HETATM    2  C   UNK N   1     -26.431  -4.863 -12.816  0.00  0.00     0.047 A 
HETATM    3  C   UNK N   1     -25.700  -5.634 -11.902  0.00  0.00     0.101 A 
HETATM    4  C   UNK N   1     -25.438  -2.845 -11.911  0.00  0.00     0.010 A 
HETATM    5  C   UNK N   1     -24.830  -5.013 -10.995  0.00  0.00     0.099 A 
HETATM    6  C   UNK N   1     -24.703  -3.614 -11.001  0.00  0.00     0.040 A 
ENDROOT
BRANCH   1   7
HETATM    7  C   UNK N   1     -27.085  -2.640 -13.812  0.00  0.00     0.065 C 
BRANCH   7   8
HETATM    8  C   UNK N   1     -28.131  -1.831 -13.098  0.00  0.00    -0.032 C 
HETATM    9  C   UNK N   1     -29.369  -2.297 -12.914  0.00  0.00     0.007 C 
ENDBRANCH   7   8
ENDBRANCH   1   7
BRANCH   3  10
HETATM   10  O   UNK N   1     -25.837  -6.976 -11.896  0.00  0.00    -0.353 OA
HETATM   11  C   UNK N   1     -25.885  -7.692 -13.071  0.00  0.00     0.210 C 
ENDBRANCH   3  10
BRANCH   5  12
HETATM   12  O   UNK N   1     -24.123  -5.765 -10.124  0.00  0.00    -0.358 OA
HETATM   13  H   UNK N   1     -23.237  -5.514  -9.828  0.00  0.00     0.218 HD
ENDBRANCH   5  12
TORSDOF 4
ENDMDL
