MODEL 1
REMARK VINA RESULT:      -5.1      0.000      0.000
REMARK  5 active torsions:
REMARK  status: ('A' for Active; 'I' for Inactive)
REMARK    1  A    between atoms: O_1  and  C_7 
REMARK    2  A    between atoms: O_2  and  C_8 
REMARK    3  A    between atoms: O_3  and  C_9 
REMARK    4  A    between atoms: O_4  and  C_12 
REMARK    5  A    between atoms: C_6  and  C_12 
ROOT
HETATM    1  C   UNK N   1     -30.451  40.683  -8.608  0.00  0.00     0.043 A 
HETATM    2  C   UNK N   1     -30.459  43.485  -8.370  0.00  0.00     0.132 A 
HETATM    3  C   UNK N   1     -30.200  42.884  -9.613  0.00  0.00     0.102 A 
HETATM    4  C   UNK N   1     -30.715  42.681  -7.244  0.00  0.00     0.102 A 
HETATM    5  C   UNK N   1     -30.196  41.489  -9.728  0.00  0.00     0.057 A 
HETATM    6  C   UNK N   1     -30.710  41.289  -7.369  0.00  0.00     0.057 A 
ENDROOT
BRANCH   1   7
HETATM    7  C   UNK N   1     -30.449  39.210  -8.725  0.00  0.00     0.176 C 
HETATM    8  O   UNK N   1     -31.116  38.526  -7.964  0.00  0.00    -0.646 OA
BRANCH   7   9
HETATM    9  O   UNK N   1     -29.703  38.614  -9.681  0.00  0.00    -0.773 OA
HETATM   10  H   UNK N   1     -29.256  37.774  -9.517  0.00  0.00     0.167 HD
ENDBRANCH   7   9
ENDBRANCH   1   7
BRANCH   3  11
HETATM   11  O   UNK N   1     -29.953  43.648 -10.697  0.00  0.00    -0.358 OA
HETATM   12  H   UNK N   1     -30.465  43.552 -11.512  0.00  0.00     0.218 HD
ENDBRANCH   3  11
BRANCH   4  13
HETATM   13  O   UNK N   1     -30.968  43.231  -6.039  0.00  0.00    -0.358 OA
HETATM   14  H   UNK N   1     -30.321  43.786  -5.581  0.00  0.00     0.218 HD
ENDBRANCH   4  13
BRANCH   2  15
HETATM   15  O   UNK N   1     -30.466  44.829  -8.246  0.00  0.00    -0.356 OA
HETATM   16  H   UNK N   1     -30.881  45.274  -7.494  0.00  0.00     0.218 HD
ENDBRANCH   2  15
TORSDOF 5
ENDMDL
MODEL 2
REMARK VINA RESULT:      -5.1      0.158      2.408
REMARK  5 active torsions:
REMARK  status: ('A' for Active; 'I' for Inactive)
REMARK    1  A    between atoms: O_1  and  C_7 
REMARK    2  A    between atoms: O_2  and  C_8 
REMARK    3  A    between atoms: O_3  and  C_9 
REMARK    4  A    between atoms: O_4  and  C_12 
REMARK    5  A    between atoms: C_6  and  C_12 
ROOT
HETATM    1  C   UNK N   1     -30.427  40.604  -8.688  0.00  0.00     0.043 A 
HETATM    2  C   UNK N   1     -30.367  43.407  -8.478  0.00  0.00     0.132 A 
HETATM    3  C   UNK N   1     -30.584  42.619  -7.334  0.00  0.00     0.102 A 
HETATM    4  C   UNK N   1     -30.180  42.790  -9.728  0.00  0.00     0.102 A 
HETATM    5  C   UNK N   1     -30.613  41.224  -7.443  0.00  0.00     0.057 A 
HETATM    6  C   UNK N   1     -30.211  41.397  -9.826  0.00  0.00     0.057 A 
ENDROOT
BRANCH   1   7
HETATM    7  C   UNK N   1     -30.457  39.131  -8.806  0.00  0.00     0.176 C 
HETATM    8  O   UNK N   1     -31.150  38.463  -8.053  0.00  0.00    -0.646 OA
BRANCH   7   9
HETATM    9  O   UNK N   1     -29.716  38.518  -9.754  0.00  0.00    -0.773 OA
HETATM   10  H   UNK N   1     -30.035  38.428 -10.660  0.00  0.00     0.167 HD
ENDBRANCH   7   9
ENDBRANCH   1   7
BRANCH   3  11
HETATM   11  O   UNK N   1     -30.764  43.204  -6.132  0.00  0.00    -0.358 OA
HETATM   12  H   UNK N   1     -30.441  44.097  -5.950  0.00  0.00     0.218 HD
ENDBRANCH   3  11
BRANCH   4  13
HETATM   13  O   UNK N   1     -29.970  43.522 -10.841  0.00  0.00    -0.358 OA
HETATM   14  H   UNK N   1     -29.173  43.421 -11.380  0.00  0.00     0.218 HD
ENDBRANCH   4  13
BRANCH   2  15
HETATM   15  O   UNK N   1     -30.337  44.754  -8.387  0.00  0.00    -0.356 OA
HETATM   16  H   UNK N   1     -30.979  45.314  -8.844  0.00  0.00     0.218 HD
ENDBRANCH   2  15
TORSDOF 5
ENDMDL
MODEL 3
REMARK VINA RESULT:      -5.1     23.642     25.770
REMARK  5 active torsions:
REMARK  status: ('A' for Active; 'I' for Inactive)
REMARK    1  A    between atoms: O_1  and  C_7 
REMARK    2  A    between atoms: O_2  and  C_8 
REMARK    3  A    between atoms: O_3  and  C_9 
REMARK    4  A    between atoms: O_4  and  C_12 
REMARK    5  A    between atoms: C_6  and  C_12 
ROOT
HETATM    1  C   UNK N   1     -16.806  19.258  -7.508  0.00  0.00     0.043 A 
HETATM    2  C   UNK N   1     -16.913  21.110  -9.621  0.00  0.00     0.132 A 
HETATM    3  C   UNK N   1     -16.028  20.020  -9.684  0.00  0.00     0.102 A 
HETATM    4  C   UNK N   1     -17.745  21.271  -8.499  0.00  0.00     0.102 A 
HETATM    5  C   UNK N   1     -15.977  19.100  -8.630  0.00  0.00     0.057 A 
HETATM    6  C   UNK N   1     -17.688  20.348  -7.452  0.00  0.00     0.057 A 
ENDROOT
BRANCH   1   7
HETATM    7  C   UNK N   1     -16.755  18.288  -6.394  0.00  0.00     0.176 C 
HETATM    8  O   UNK N   1     -15.682  17.931  -5.932  0.00  0.00    -0.646 OA
BRANCH   7   9
HETATM    9  O   UNK N   1     -17.902  17.793  -5.882  0.00  0.00    -0.773 OA
HETATM   10  H   UNK N   1     -18.241  18.093  -5.029  0.00  0.00     0.167 HD
ENDBRANCH   7   9
ENDBRANCH   1   7
BRANCH   3  11
HETATM   11  O   UNK N   1     -15.226  19.858 -10.756  0.00  0.00    -0.358 OA
HETATM   12  H   UNK N   1     -14.448  20.415 -10.896  0.00  0.00     0.218 HD
ENDBRANCH   3  11
BRANCH   4  13
HETATM   13  O   UNK N   1     -18.604  22.308  -8.413  0.00  0.00    -0.358 OA
HETATM   14  H   UNK N   1     -18.744  22.793  -7.587  0.00  0.00     0.218 HD
ENDBRANCH   4  13
BRANCH   2  15
HETATM   15  O   UNK N   1     -16.972  22.004 -10.631  0.00  0.00    -0.356 OA
HETATM   16  H   UNK N   1     -17.622  21.933 -11.343  0.00  0.00     0.218 HD
ENDBRANCH   2  15
TORSDOF 5
ENDMDL
MODEL 4
REMARK VINA RESULT:      -5.1     23.648     25.847
REMARK  5 active torsions:
REMARK  status: ('A' for Active; 'I' for Inactive)
REMARK    1  A    between atoms: O_1  and  C_7 
REMARK    2  A    between atoms: O_2  and  C_8 
REMARK    3  A    between atoms: O_3  and  C_9 
REMARK    4  A    between atoms: O_4  and  C_12 
REMARK    5  A    between atoms: C_6  and  C_12 
ROOT
HETATM    1  C   UNK N   1     -16.780  19.254  -7.507  0.00  0.00     0.043 A 
HETATM    2  C   UNK N   1     -16.932  21.116  -9.609  0.00  0.00     0.132 A 
HETATM    3  C   UNK N   1     -17.754  21.260  -8.478  0.00  0.00     0.102 A 
HETATM    4  C   UNK N   1     -16.032  20.037  -9.686  0.00  0.00     0.102 A 
HETATM    5  C   UNK N   1     -17.676  20.332  -7.434  0.00  0.00     0.057 A 
HETATM    6  C   UNK N   1     -15.961  19.115  -8.639  0.00  0.00     0.057 A 
ENDROOT
BRANCH   1   7
HETATM    7  C   UNK N   1     -16.695  18.272  -6.406  0.00  0.00     0.176 C 
HETATM    8  O   UNK N   1     -15.608  17.911  -5.980  0.00  0.00    -0.646 OA
BRANCH   7   9
HETATM    9  O   UNK N   1     -17.826  17.769  -5.866  0.00  0.00    -0.773 OA
HETATM   10  H   UNK N   1     -18.221  18.160  -5.076  0.00  0.00     0.167 HD
ENDBRANCH   7   9
ENDBRANCH   1   7
BRANCH   3  11
HETATM   11  O   UNK N   1     -18.619  22.292  -8.397  0.00  0.00    -0.358 OA
HETATM   12  H   UNK N   1     -18.467  23.035  -7.796  0.00  0.00     0.218 HD
ENDBRANCH   3  11
BRANCH   4  13
HETATM   13  O   UNK N   1     -15.231  19.874 -10.759  0.00  0.00    -0.358 OA
HETATM   14  H   UNK N   1     -14.299  19.631 -10.672  0.00  0.00     0.218 HD
ENDBRANCH   4  13
BRANCH   2  15
HETATM   15  O   UNK N   1     -16.997  22.005 -10.623  0.00  0.00    -0.356 OA
HETATM   16  H   UNK N   1     -17.736  22.621 -10.718  0.00  0.00     0.218 HD
ENDBRANCH   2  15
TORSDOF 5
ENDMDL
MODEL 5
REMARK VINA RESULT:      -5.1     42.799     44.679
REMARK  5 active torsions:
REMARK  status: ('A' for Active; 'I' for Inactive)
REMARK    1  A    between atoms: O_1  and  C_7 
REMARK    2  A    between atoms: O_2  and  C_8 
REMARK    3  A    between atoms: O_3  and  C_9 
REMARK    4  A    between atoms: O_4  and  C_12 
REMARK    5  A    between atoms: C_6  and  C_12 
ROOT
HETATM    1  C   UNK N   1     -37.471  -1.500  -4.503  0.00  0.00     0.043 A 
HETATM    2  C   UNK N   1     -35.923  -3.278  -6.036  0.00  0.00     0.132 A 
HETATM    3  C   UNK N   1     -35.962  -3.404  -4.637  0.00  0.00     0.102 A 
HETATM    4  C   UNK N   1     -36.660  -2.259  -6.667  0.00  0.00     0.102 A 
HETATM    5  C   UNK N   1     -36.734  -2.517  -3.876  0.00  0.00     0.057 A 
HETATM    6  C   UNK N   1     -37.427  -1.379  -5.900  0.00  0.00     0.057 A 
ENDROOT
BRANCH   1   7
HETATM    7  C   UNK N   1     -38.287  -0.563  -3.703  0.00  0.00     0.176 C 
HETATM    8  O   UNK N   1     -39.344  -0.926  -3.210  0.00  0.00    -0.646 OA
BRANCH   7   9
HETATM    9  O   UNK N   1     -37.861   0.705  -3.514  0.00  0.00    -0.773 OA
HETATM   10  H   UNK N   1     -37.315   0.943  -2.753  0.00  0.00     0.167 HD
ENDBRANCH   7   9
ENDBRANCH   1   7
BRANCH   3  11
HETATM   11  O   UNK N   1     -35.258  -4.378  -4.024  0.00  0.00    -0.358 OA
HETATM   12  H   UNK N   1     -35.438  -5.314  -4.190  0.00  0.00     0.218 HD
ENDBRANCH   3  11
BRANCH   4  13
HETATM   13  O   UNK N   1     -36.641  -2.115  -8.008  0.00  0.00    -0.358 OA
HETATM   14  H   UNK N   1     -37.287  -1.567  -8.476  0.00  0.00     0.218 HD
ENDBRANCH   4  13
BRANCH   2  15
HETATM   15  O   UNK N   1     -35.182  -4.126  -6.781  0.00  0.00    -0.356 OA
HETATM   16  H   UNK N   1     -34.433  -3.823  -7.312  0.00  0.00     0.218 HD
ENDBRANCH   2  15
TORSDOF 5
ENDMDL
MODEL 6
REMARK VINA RESULT:      -5.0     24.618     26.307
REMARK  5 active torsions:
REMARK  status: ('A' for Active; 'I' for Inactive)
REMARK    1  A    between atoms: O_1  and  C_7 
REMARK    2  A    between atoms: O_2  and  C_8 
REMARK    3  A    between atoms: O_3  and  C_9 
REMARK    4  A    between atoms: O_4  and  C_12 
REMARK    5  A    between atoms: C_6  and  C_12 
ROOT
HETATM    1  C   UNK N   1     -16.381  19.829  -8.903  0.00  0.00     0.043 A 
HETATM    2  C   UNK N   1     -16.623  19.463  -6.126  0.00  0.00     0.132 A 
HETATM    3  C   UNK N   1     -15.735  18.665  -6.867  0.00  0.00     0.102 A 
HETATM    4  C   UNK N   1     -17.391  20.445  -6.777  0.00  0.00     0.102 A 
HETATM    5  C   UNK N   1     -15.616  18.850  -8.250  0.00  0.00     0.057 A 
HETATM    6  C   UNK N   1     -17.266  20.622  -8.157  0.00  0.00     0.057 A 
ENDROOT
BRANCH   1   7
HETATM    7  C   UNK N   1     -16.259  20.027 -10.363  0.00  0.00     0.176 C 
HETATM    8  O   UNK N   1     -17.218  20.401 -11.020  0.00  0.00    -0.646 OA
BRANCH   7   9
HETATM    9  O   UNK N   1     -15.078  19.793 -10.975  0.00  0.00    -0.773 OA
HETATM   10  H   UNK N   1     -14.826  20.269 -11.777  0.00  0.00     0.167 HD
ENDBRANCH   7   9
ENDBRANCH   1   7
BRANCH   3  11
HETATM   11  O   UNK N   1     -14.995  17.721  -6.249  0.00  0.00    -0.358 OA
HETATM   12  H   UNK N   1     -14.808  17.764  -5.301  0.00  0.00     0.218 HD
ENDBRANCH   3  11
BRANCH   4  13
HETATM   13  O   UNK N   1     -18.252  21.225  -6.091  0.00  0.00    -0.358 OA
HETATM   14  H   UNK N   1     -18.282  22.184  -6.209  0.00  0.00     0.218 HD
ENDBRANCH   4  13
BRANCH   2  15
HETATM   15  O   UNK N   1     -16.746  19.294  -4.792  0.00  0.00    -0.356 OA
HETATM   16  H   UNK N   1     -16.265  18.605  -4.315  0.00  0.00     0.218 HD
ENDBRANCH   2  15
TORSDOF 5
ENDMDL
MODEL 7
REMARK VINA RESULT:      -5.0     24.592     26.297
REMARK  5 active torsions:
REMARK  status: ('A' for Active; 'I' for Inactive)
REMARK    1  A    between atoms: O_1  and  C_7 
REMARK    2  A    between atoms: O_2  and  C_8 
REMARK    3  A    between atoms: O_3  and  C_9 
REMARK    4  A    between atoms: O_4  and  C_12 
REMARK    5  A    between atoms: C_6  and  C_12 
ROOT
HETATM    1  C   UNK N   1     -16.401  19.855  -8.919  0.00  0.00     0.043 A 
HETATM    2  C   UNK N   1     -16.641  19.485  -6.142  0.00  0.00     0.132 A 
HETATM    3  C   UNK N   1     -17.407  20.468  -6.790  0.00  0.00     0.102 A 
HETATM    4  C   UNK N   1     -15.753  18.686  -6.886  0.00  0.00     0.102 A 
HETATM    5  C   UNK N   1     -17.286  20.649  -8.173  0.00  0.00     0.057 A 
HETATM    6  C   UNK N   1     -15.639  18.875  -8.265  0.00  0.00     0.057 A 
ENDROOT
BRANCH   1   7
HETATM    7  C   UNK N   1     -16.270  20.044 -10.379  0.00  0.00     0.176 C 
HETATM    8  O   UNK N   1     -17.220  20.434 -11.041  0.00  0.00    -0.646 OA
BRANCH   7   9
HETATM    9  O   UNK N   1     -15.093  19.784 -10.986  0.00  0.00    -0.773 OA
HETATM   10  H   UNK N   1     -14.749  18.884 -11.049  0.00  0.00     0.167 HD
ENDBRANCH   7   9
ENDBRANCH   1   7
BRANCH   3  11
HETATM   11  O   UNK N   1     -18.261  21.237  -6.084  0.00  0.00    -0.358 OA
HETATM   12  H   UNK N   1     -18.759  21.955  -6.500  0.00  0.00     0.218 HD
ENDBRANCH   3  11
BRANCH   4  13
HETATM   13  O   UNK N   1     -15.005  17.735  -6.289  0.00  0.00    -0.358 OA
HETATM   14  H   UNK N   1     -15.402  16.993  -5.811  0.00  0.00     0.218 HD
ENDBRANCH   4  13
BRANCH   2  15
HETATM   15  O   UNK N   1     -16.749  19.299  -4.809  0.00  0.00    -0.356 OA
HETATM   16  H   UNK N   1     -16.926  20.031  -4.201  0.00  0.00     0.218 HD
ENDBRANCH   2  15
TORSDOF 5
ENDMDL
MODEL 8
REMARK VINA RESULT:      -5.0     23.605     25.157
REMARK  5 active torsions:
REMARK  status: ('A' for Active; 'I' for Inactive)
REMARK    1  A    between atoms: O_1  and  C_7 
REMARK    2  A    between atoms: O_2  and  C_8 
REMARK    3  A    between atoms: O_3  and  C_9 
REMARK    4  A    between atoms: O_4  and  C_12 
REMARK    5  A    between atoms: C_6  and  C_12 
ROOT
HETATM    1  C   UNK N   1     -17.437  20.887 -10.800  0.00  0.00     0.043 A 
HETATM    2  C   UNK N   1     -16.656  20.284  -8.166  0.00  0.00     0.132 A 
HETATM    3  C   UNK N   1     -15.988  19.693  -9.252  0.00  0.00     0.102 A 
HETATM    4  C   UNK N   1     -17.716  21.179  -8.400  0.00  0.00     0.102 A 
HETATM    5  C   UNK N   1     -16.379  19.995 -10.562  0.00  0.00     0.057 A 
HETATM    6  C   UNK N   1     -18.099  21.474  -9.711  0.00  0.00     0.057 A 
ENDROOT
BRANCH   1   7
HETATM    7  C   UNK N   1     -17.852  21.208 -12.181  0.00  0.00     0.176 C 
HETATM    8  O   UNK N   1     -18.529  22.199 -12.410  0.00  0.00    -0.646 OA
BRANCH   7   9
HETATM    9  O   UNK N   1     -17.481  20.401 -13.198  0.00  0.00    -0.773 OA
HETATM   10  H   UNK N   1     -17.863  20.498 -14.080  0.00  0.00     0.167 HD
ENDBRANCH   7   9
ENDBRANCH   1   7
BRANCH   3  11
HETATM   11  O   UNK N   1     -14.970  18.834  -9.036  0.00  0.00    -0.358 OA
HETATM   12  H   UNK N   1     -15.123  17.887  -8.918  0.00  0.00     0.218 HD
ENDBRANCH   3  11
BRANCH   4  13
HETATM   13  O   UNK N   1     -18.375  21.761  -7.377  0.00  0.00    -0.358 OA
HETATM   14  H   UNK N   1     -17.996  21.819  -6.489  0.00  0.00     0.218 HD
ENDBRANCH   4  13
BRANCH   2  15
HETATM   15  O   UNK N   1     -16.288  20.001  -6.898  0.00  0.00    -0.356 OA
HETATM   16  H   UNK N   1     -16.328  19.104  -6.540  0.00  0.00     0.218 HD
ENDBRANCH   2  15
TORSDOF 5
ENDMDL
MODEL 9
REMARK VINA RESULT:      -4.9     21.677     23.782
REMARK  5 active torsions:
REMARK  status: ('A' for Active; 'I' for Inactive)
REMARK    1  A    between atoms: O_1  and  C_7 
REMARK    2  A    between atoms: O_2  and  C_8 
REMARK    3  A    between atoms: O_3  and  C_9 
REMARK    4  A    between atoms: O_4  and  C_12 
REMARK    5  A    between atoms: C_6  and  C_12 
ROOT
HETATM    1  C   UNK N   1     -18.492  22.687 -12.783  0.00  0.00     0.043 A 
HETATM    2  C   UNK N   1     -17.373  20.999 -10.831  0.00  0.00     0.132 A 
HETATM    3  C   UNK N   1     -17.646  20.505 -12.118  0.00  0.00     0.102 A 
HETATM    4  C   UNK N   1     -17.662  22.341 -10.522  0.00  0.00     0.102 A 
HETATM    5  C   UNK N   1     -18.203  21.347 -13.087  0.00  0.00     0.057 A 
HETATM    6  C   UNK N   1     -18.218  23.174 -11.496  0.00  0.00     0.057 A 
ENDROOT
BRANCH   1   7
HETATM    7  C   UNK N   1     -19.080  23.579 -13.804  0.00  0.00     0.176 C 
HETATM    8  O   UNK N   1     -19.670  24.596 -13.472  0.00  0.00    -0.646 OA
BRANCH   7   9
HETATM    9  O   UNK N   1     -18.965  23.269 -15.113  0.00  0.00    -0.773 OA
HETATM   10  H   UNK N   1     -18.141  23.421 -15.594  0.00  0.00     0.167 HD
ENDBRANCH   7   9
ENDBRANCH   1   7
BRANCH   3  11
HETATM   11  O   UNK N   1     -17.372  19.219 -12.422  0.00  0.00    -0.358 OA
HETATM   12  H   UNK N   1     -17.562  18.501 -11.803  0.00  0.00     0.218 HD
ENDBRANCH   3  11
BRANCH   4  13
HETATM   13  O   UNK N   1     -17.410  22.842  -9.295  0.00  0.00    -0.358 OA
HETATM   14  H   UNK N   1     -18.113  23.189  -8.728  0.00  0.00     0.218 HD
ENDBRANCH   4  13
BRANCH   2  15
HETATM   15  O   UNK N   1     -16.836  20.197  -9.888  0.00  0.00    -0.356 OA
HETATM   16  H   UNK N   1     -16.902  19.233  -9.935  0.00  0.00     0.218 HD
ENDBRANCH   2  15
TORSDOF 5
ENDMDL
