MODEL 1
REMARK VINA RESULT:      -7.0      0.000      0.000
REMARK  9 active torsions:
REMARK  status: ('A' for Active; 'I' for Inactive)
REMARK    1  A    between atoms: O_1  and  C_13 
REMARK    2  A    between atoms: O_2  and  C_15 
REMARK    3  A    between atoms: O_3  and  C_16 
REMARK    4  A    between atoms: O_4  and  C_22 
REMARK    5  A    between atoms: N_7  and  C_14 
REMARK    6  A    between atoms: C_13  and  C_14 
REMARK    7  A    between atoms: C_13  and  C_15 
REMARK    8  A    between atoms: C_15  and  C_16 
REMARK    9  A    between atoms: C_16  and  C_22 
ROOT
HETATM    1  O   UNK N   1     -17.562  21.425 -15.591  0.00  0.00    -0.265 OA
HETATM    2  O   UNK N   1     -20.026  25.174 -15.539  0.00  0.00    -0.247 OA
HETATM    3  N   UNK N   1     -18.886  23.257 -11.486  0.00  0.00    -0.327 N 
HETATM    4  N   UNK N   1     -17.537  21.280 -12.891  0.00  0.00    -0.347 N 
ATOM      5  HN  UNK N   1     -17.041  20.555 -13.410  1.00  0.00     0.166 HD
HETATM    6  N   UNK N   1     -19.467  24.265 -13.570  0.00  0.00    -0.292 N 
ATOM      7  HN  UNK N   1     -19.961  25.001 -13.066  1.00  0.00     0.172 HD
HETATM    8  N   UNK N   1     -18.789  23.303 -15.634  0.00  0.00    -0.273 N 
HETATM    9  C   UNK N   1     -18.250  22.224 -10.805  0.00  0.00     0.063 A 
HETATM   10  C   UNK N   1     -18.838  23.283 -12.864  0.00  0.00     0.145 A 
HETATM   11  C   UNK N   1     -17.561  21.229 -11.540  0.00  0.00     0.060 A 
HETATM   12  C   UNK N   1     -18.250  22.125  -9.390  0.00  0.00     0.039 A 
HETATM   13  C   UNK N   1     -18.158  22.270 -13.566  0.00  0.00     0.146 A 
HETATM   14  C   UNK N   1     -17.575  21.076  -8.736  0.00  0.00    -0.054 A 
HETATM   15  C   UNK N   1     -16.899  20.187 -10.891  0.00  0.00     0.039 A 
HETATM   16  C   UNK N   1     -16.894  20.099  -9.496  0.00  0.00    -0.054 A 
HETATM   17  C   UNK N   1     -18.143  22.297 -14.964  0.00  0.00     0.280 A 
HETATM   18  C   UNK N   1     -17.581  21.011  -7.230  0.00  0.00     0.049 C 
HETATM   19  C   UNK N   1     -16.160  18.961  -8.832  0.00  0.00     0.049 C 
HETATM   20  C   UNK N   1     -19.450  24.285 -14.940  0.00  0.00     0.328 A 
HETATM   21  H   UNK N   1     -18.782  23.319 -16.679  0.00  0.00     0.173 HD
ENDROOT
BRANCH   3  22
HETATM   22  C   UNK N   1     -19.632  24.322 -10.765  0.00  0.00     0.165 C 
BRANCH  22  23
HETATM   23  C   UNK N   1     -21.139  23.984 -10.714  0.00  0.00     0.167 C 
BRANCH  23  24
HETATM   24  O   UNK N   1     -21.378  22.827 -11.477  0.00  0.00    -0.391 OA
HETATM   25  H   UNK N   1     -21.221  22.045 -10.887  0.00  0.00     0.210 HD
ENDBRANCH  23  24
BRANCH  23  26
HETATM   26  C   UNK N   1     -22.020  25.136 -11.259  0.00  0.00     0.179 C 
BRANCH  26  27
HETATM   27  O   UNK N   1     -22.381  24.844 -12.587  0.00  0.00    -0.390 OA
HETATM   28  H   UNK N   1     -22.301  23.861 -12.704  0.00  0.00     0.210 HD
ENDBRANCH  26  27
BRANCH  26  29
HETATM   29  C   UNK N   1     -21.324  26.527 -11.185  0.00  0.00     0.173 C 
BRANCH  29  30
HETATM   30  O   UNK N   1     -21.720  27.162  -9.993  0.00  0.00    -0.391 OA
HETATM   31  H   UNK N   1     -21.561  28.136 -10.105  0.00  0.00     0.210 HD
ENDBRANCH  29  30
BRANCH  29  32
HETATM   32  C   UNK N   1     -21.656  27.431 -12.393  0.00  0.00     0.198 C 
BRANCH  32  33
HETATM   33  O   UNK N   1     -20.826  27.134 -13.483  0.00  0.00    -0.398 OA
HETATM   34  H   UNK N   1     -20.045  27.747 -13.421  0.00  0.00     0.209 HD
ENDBRANCH  32  33
ENDBRANCH  29  32
ENDBRANCH  26  29
ENDBRANCH  23  26
ENDBRANCH  22  23
ENDBRANCH   3  22
TORSDOF 9
ENDMDL
MODEL 2
REMARK VINA RESULT:      -7.0      3.227      7.176
REMARK  9 active torsions:
REMARK  status: ('A' for Active; 'I' for Inactive)
REMARK    1  A    between atoms: O_1  and  C_13 
REMARK    2  A    between atoms: O_2  and  C_15 
REMARK    3  A    between atoms: O_3  and  C_16 
REMARK    4  A    between atoms: O_4  and  C_22 
REMARK    5  A    between atoms: N_7  and  C_14 
REMARK    6  A    between atoms: C_13  and  C_14 
REMARK    7  A    between atoms: C_13  and  C_15 
REMARK    8  A    between atoms: C_15  and  C_16 
REMARK    9  A    between atoms: C_16  and  C_22 
ROOT
HETATM    1  O   UNK N   1     -18.561  23.283 -11.481  0.00  0.00    -0.265 OA
HETATM    2  O   UNK N   1     -17.745  21.822 -15.643  0.00  0.00    -0.247 OA
HETATM    3  N   UNK N   1     -20.547  25.466 -15.120  0.00  0.00    -0.327 N 
HETATM    4  N   UNK N   1     -20.167  25.264 -12.379  0.00  0.00    -0.347 N 
ATOM      5  HN  UNK N   1     -20.024  25.188 -11.372  1.00  0.00     0.166 HD
HETATM    6  N   UNK N   1     -19.090  23.597 -15.405  0.00  0.00    -0.292 N 
ATOM      7  HN  UNK N   1     -19.215  23.663 -16.415  1.00  0.00     0.172 HD
HETATM    8  N   UNK N   1     -18.110  22.505 -13.536  0.00  0.00    -0.273 N 
HETATM    9  C   UNK N   1     -21.191  26.346 -14.258  0.00  0.00     0.063 A 
HETATM   10  C   UNK N   1     -19.721  24.493 -14.595  0.00  0.00     0.145 A 
HETATM   11  C   UNK N   1     -20.978  26.231 -12.862  0.00  0.00     0.060 A 
HETATM   12  C   UNK N   1     -22.053  27.375 -14.716  0.00  0.00     0.039 A 
HETATM   13  C   UNK N   1     -19.543  24.395 -13.203  0.00  0.00     0.146 A 
HETATM   14  C   UNK N   1     -22.669  28.262 -13.812  0.00  0.00    -0.054 A 
HETATM   15  C   UNK N   1     -21.594  27.106 -11.968  0.00  0.00     0.039 A 
HETATM   16  C   UNK N   1     -22.436  28.124 -12.425  0.00  0.00    -0.054 A 
HETATM   17  C   UNK N   1     -18.725  23.386 -12.686  0.00  0.00     0.280 A 
HETATM   18  C   UNK N   1     -23.566  29.355 -14.336  0.00  0.00     0.049 C 
HETATM   19  C   UNK N   1     -23.078  29.054 -11.427  0.00  0.00     0.049 C 
HETATM   20  C   UNK N   1     -18.290  22.609 -14.892  0.00  0.00     0.328 A 
HETATM   21  H   UNK N   1     -17.502  21.748 -13.148  0.00  0.00     0.173 HD
ENDROOT
BRANCH   3  22
HETATM   22  C   UNK N   1     -20.742  25.535 -16.593  0.00  0.00     0.165 C 
BRANCH  22  23
HETATM   23  C   UNK N   1     -19.634  26.393 -17.245  0.00  0.00     0.167 C 
BRANCH  23  24
HETATM   24  O   UNK N   1     -20.210  27.557 -17.784  0.00  0.00    -0.391 OA
HETATM   25  H   UNK N   1     -20.354  28.190 -17.034  0.00  0.00     0.210 HD
ENDBRANCH  23  24
BRANCH  23  26
HETATM   26  C   UNK N   1     -18.888  25.634 -18.371  0.00  0.00     0.179 C 
BRANCH  26  27
HETATM   27  O   UNK N   1     -19.103  24.253 -18.211  0.00  0.00    -0.390 OA
HETATM   28  H   UNK N   1     -18.233  23.800 -18.370  0.00  0.00     0.210 HD
ENDBRANCH  26  27
BRANCH  26  29
HETATM   29  C   UNK N   1     -17.362  25.939 -18.409  0.00  0.00     0.173 C 
BRANCH  29  30
HETATM   30  O   UNK N   1     -16.836  25.446 -19.617  0.00  0.00    -0.391 OA
HETATM   31  H   UNK N   1     -16.367  26.195 -20.069  0.00  0.00     0.210 HD
ENDBRANCH  29  30
BRANCH  29  32
HETATM   32  C   UNK N   1     -16.595  25.324 -17.217  0.00  0.00     0.198 C 
BRANCH  32  33
HETATM   33  O   UNK N   1     -16.450  23.939 -17.377  0.00  0.00    -0.398 OA
HETATM   34  H   UNK N   1     -15.641  23.801 -17.939  0.00  0.00     0.209 HD
ENDBRANCH  32  33
ENDBRANCH  29  32
ENDBRANCH  26  29
ENDBRANCH  23  26
ENDBRANCH  22  23
ENDBRANCH   3  22
TORSDOF 9
ENDMDL
MODEL 3
REMARK VINA RESULT:      -6.8      3.803      6.855
REMARK  9 active torsions:
REMARK  status: ('A' for Active; 'I' for Inactive)
REMARK    1  A    between atoms: O_1  and  C_13 
REMARK    2  A    between atoms: O_2  and  C_15 
REMARK    3  A    between atoms: O_3  and  C_16 
REMARK    4  A    between atoms: O_4  and  C_22 
REMARK    5  A    between atoms: N_7  and  C_14 
REMARK    6  A    between atoms: C_13  and  C_14 
REMARK    7  A    between atoms: C_13  and  C_15 
REMARK    8  A    between atoms: C_15  and  C_16 
REMARK    9  A    between atoms: C_16  and  C_22 
ROOT
HETATM    1  O   UNK N   1     -22.930  27.999 -13.190  0.00  0.00    -0.265 OA
HETATM    2  O   UNK N   1     -23.592  29.095 -17.490  0.00  0.00    -0.247 OA
HETATM    3  N   UNK N   1     -20.709  25.601 -16.549  0.00  0.00    -0.327 N 
HETATM    4  N   UNK N   1     -21.224  26.008 -13.852  0.00  0.00    -0.347 N 
ATOM      5  HN  UNK N   1     -21.416  26.159 -12.862  1.00  0.00     0.166 HD
HETATM    6  N   UNK N   1     -22.207  27.391 -17.049  0.00  0.00    -0.292 N 
ATOM      7  HN  UNK N   1     -22.032  27.249 -18.043  1.00  0.00     0.172 HD
HETATM    8  N   UNK N   1     -23.307  28.595 -15.321  0.00  0.00    -0.273 N 
HETATM    9  C   UNK N   1     -20.080  24.815 -15.590  0.00  0.00     0.063 A 
HETATM   10  C   UNK N   1     -21.588  26.585 -16.142  0.00  0.00     0.145 A 
HETATM   11  C   UNK N   1     -20.362  25.034 -14.219  0.00  0.00     0.060 A 
HETATM   12  C   UNK N   1     -19.166  23.783 -15.924  0.00  0.00     0.039 A 
HETATM   13  C   UNK N   1     -21.834  26.787 -14.771  0.00  0.00     0.146 A 
HETATM   14  C   UNK N   1     -18.567  22.993 -14.924  0.00  0.00    -0.054 A 
HETATM   15  C   UNK N   1     -19.762  24.255 -13.230  0.00  0.00     0.039 A 
HETATM   16  C   UNK N   1     -18.869  23.232 -13.565  0.00  0.00    -0.054 A 
HETATM   17  C   UNK N   1     -22.706  27.806 -14.375  0.00  0.00     0.280 A 
HETATM   18  C   UNK N   1     -17.614  21.893 -15.317  0.00  0.00     0.049 C 
HETATM   19  C   UNK N   1     -18.248  22.407 -12.467  0.00  0.00     0.049 C 
HETATM   20  C   UNK N   1     -23.059  28.389 -16.654  0.00  0.00     0.328 A 
HETATM   21  H   UNK N   1     -23.955  29.360 -15.023  0.00  0.00     0.173 HD
ENDROOT
BRANCH   3  22
HETATM   22  C   UNK N   1     -20.443  25.422 -18.001  0.00  0.00     0.165 C 
BRANCH  22  23
HETATM   23  C   UNK N   1     -21.326  24.292 -18.576  0.00  0.00     0.167 C 
BRANCH  23  24
HETATM   24  O   UNK N   1     -20.515  23.390 -19.288  0.00  0.00    -0.391 OA
HETATM   25  H   UNK N   1     -20.057  23.905 -20.002  0.00  0.00     0.210 HD
ENDBRANCH  23  24
BRANCH  23  26
HETATM   26  C   UNK N   1     -22.428  24.830 -19.522  0.00  0.00     0.179 C 
BRANCH  26  27
HETATM   27  O   UNK N   1     -22.164  26.181 -19.809  0.00  0.00    -0.390 OA
HETATM   28  H   UNK N   1     -22.875  26.719 -19.371  0.00  0.00     0.210 HD
ENDBRANCH  26  27
BRANCH  26  29
HETATM   29  C   UNK N   1     -23.865  24.676 -18.940  0.00  0.00     0.173 C 
BRANCH  29  30
HETATM   30  O   UNK N   1     -24.388  25.959 -18.695  0.00  0.00    -0.391 OA
HETATM   31  H   UNK N   1     -25.295  25.844 -18.307  0.00  0.00     0.210 HD
ENDBRANCH  29  30
BRANCH  29  32
HETATM   32  C   UNK N   1     -23.900  23.841 -17.640  0.00  0.00     0.198 C 
BRANCH  32  33
HETATM   33  O   UNK N   1     -24.233  22.507 -17.911  0.00  0.00    -0.398 OA
HETATM   34  H   UNK N   1     -24.926  22.246 -17.248  0.00  0.00     0.209 HD
ENDBRANCH  32  33
ENDBRANCH  29  32
ENDBRANCH  26  29
ENDBRANCH  23  26
ENDBRANCH  22  23
ENDBRANCH   3  22
TORSDOF 9
ENDMDL
MODEL 4
REMARK VINA RESULT:      -6.7      6.615     10.468
REMARK  9 active torsions:
REMARK  status: ('A' for Active; 'I' for Inactive)
REMARK    1  A    between atoms: O_1  and  C_13 
REMARK    2  A    between atoms: O_2  and  C_15 
REMARK    3  A    between atoms: O_3  and  C_16 
REMARK    4  A    between atoms: O_4  and  C_22 
REMARK    5  A    between atoms: N_7  and  C_14 
REMARK    6  A    between atoms: C_13  and  C_14 
REMARK    7  A    between atoms: C_13  and  C_15 
REMARK    8  A    between atoms: C_15  and  C_16 
REMARK    9  A    between atoms: C_16  and  C_22 
ROOT
HETATM    1  O   UNK N   1     -20.160  22.033  -3.858  0.00  0.00    -0.265 OA
HETATM    2  O   UNK N   1     -18.418  18.567  -1.604  0.00  0.00    -0.247 OA
HETATM    3  N   UNK N   1     -17.174  19.143  -6.022  0.00  0.00    -0.327 N 
HETATM    4  N   UNK N   1     -18.811  21.383  -6.108  0.00  0.00    -0.347 N 
ATOM      5  HN  UNK N   1     -19.411  22.206  -6.137  1.00  0.00     0.166 HD
HETATM    6  N   UNK N   1     -17.795  18.844  -3.737  0.00  0.00    -0.292 N 
ATOM      7  HN  UNK N   1     -17.193  18.022  -3.689  1.00  0.00     0.172 HD
HETATM    8  N   UNK N   1     -19.322  20.321  -2.674  0.00  0.00    -0.273 N 
HETATM    9  C   UNK N   1     -17.300  19.873  -7.199  0.00  0.00     0.063 A 
HETATM   10  C   UNK N   1     -17.874  19.545  -4.903  0.00  0.00     0.145 A 
HETATM   11  C   UNK N   1     -18.134  21.017  -7.221  0.00  0.00     0.060 A 
HETATM   12  C   UNK N   1     -16.615  19.528  -8.392  0.00  0.00     0.039 A 
HETATM   13  C   UNK N   1     -18.707  20.678  -4.961  0.00  0.00     0.146 A 
HETATM   14  C   UNK N   1     -16.751  20.307  -9.558  0.00  0.00    -0.054 A 
HETATM   15  C   UNK N   1     -18.273  21.783  -8.378  0.00  0.00     0.039 A 
HETATM   16  C   UNK N   1     -17.588  21.444  -9.549  0.00  0.00    -0.054 A 
HETATM   17  C   UNK N   1     -19.430  21.056  -3.826  0.00  0.00     0.280 A 
HETATM   18  C   UNK N   1     -15.993  19.920 -10.803  0.00  0.00     0.049 C 
HETATM   19  C   UNK N   1     -17.759  22.302 -10.777  0.00  0.00     0.049 C 
HETATM   20  C   UNK N   1     -18.508  19.218  -2.628  0.00  0.00     0.328 A 
HETATM   21  H   UNK N   1     -19.867  20.602  -1.826  0.00  0.00     0.173 HD
ENDROOT
BRANCH   3  22
HETATM   22  C   UNK N   1     -16.320  17.928  -5.947  0.00  0.00     0.165 C 
BRANCH  22  23
HETATM   23  C   UNK N   1     -14.889  18.301  -5.501  0.00  0.00     0.167 C 
BRANCH  23  24
HETATM   24  O   UNK N   1     -14.004  18.096  -6.574  0.00  0.00    -0.391 OA
HETATM   25  H   UNK N   1     -14.085  18.879  -7.178  0.00  0.00     0.210 HD
ENDBRANCH  23  24
BRANCH  23  26
HETATM   26  C   UNK N   1     -14.412  17.460  -4.290  0.00  0.00     0.179 C 
BRANCH  26  27
HETATM   27  O   UNK N   1     -13.130  16.950  -4.565  0.00  0.00    -0.390 OA
HETATM   28  H   UNK N   1     -13.094  16.756  -5.538  0.00  0.00     0.210 HD
ENDBRANCH  26  27
BRANCH  26  29
HETATM   29  C   UNK N   1     -15.385  16.300  -3.927  0.00  0.00     0.173 C 
BRANCH  29  30
HETATM   30  O   UNK N   1     -16.138  16.683  -2.802  0.00  0.00    -0.391 OA
HETATM   31  H   UNK N   1     -16.467  15.854  -2.365  0.00  0.00     0.210 HD
ENDBRANCH  29  30
BRANCH  29  32
HETATM   32  C   UNK N   1     -14.655  14.969  -3.639  0.00  0.00     0.198 C 
BRANCH  32  33
HETATM   33  O   UNK N   1     -15.421  13.875  -4.064  0.00  0.00    -0.398 OA
HETATM   34  H   UNK N   1     -14.786  13.126  -4.216  0.00  0.00     0.209 HD
ENDBRANCH  32  33
ENDBRANCH  29  32
ENDBRANCH  26  29
ENDBRANCH  23  26
ENDBRANCH  22  23
ENDBRANCH   3  22
TORSDOF 9
ENDMDL
MODEL 5
REMARK VINA RESULT:      -6.7      2.243      5.507
REMARK  9 active torsions:
REMARK  status: ('A' for Active; 'I' for Inactive)
REMARK    1  A    between atoms: O_1  and  C_13 
REMARK    2  A    between atoms: O_2  and  C_15 
REMARK    3  A    between atoms: O_3  and  C_16 
REMARK    4  A    between atoms: O_4  and  C_22 
REMARK    5  A    between atoms: N_7  and  C_14 
REMARK    6  A    between atoms: C_13  and  C_14 
REMARK    7  A    between atoms: C_13  and  C_15 
REMARK    8  A    between atoms: C_15  and  C_16 
REMARK    9  A    between atoms: C_16  and  C_22 
ROOT
HETATM    1  O   UNK N   1     -21.683  27.685 -10.289  0.00  0.00    -0.265 OA
HETATM    2  O   UNK N   1     -22.867  28.590 -14.521  0.00  0.00    -0.247 OA
HETATM    3  N   UNK N   1     -20.388  24.767 -13.719  0.00  0.00    -0.327 N 
HETATM    4  N   UNK N   1     -20.401  25.420 -11.022  0.00  0.00    -0.347 N 
ATOM      5  HN  UNK N   1     -20.408  25.662 -10.031  1.00  0.00     0.166 HD
HETATM    6  N   UNK N   1     -21.681  26.728 -14.144  0.00  0.00    -0.292 N 
ATOM      7  HN  UNK N   1     -21.690  26.497 -15.138  1.00  0.00     0.172 HD
HETATM    8  N   UNK N   1     -22.310  28.193 -12.383  0.00  0.00    -0.273 N 
HETATM    9  C   UNK N   1     -19.729  23.957 -12.800  0.00  0.00     0.063 A 
HETATM   10  C   UNK N   1     -21.043  25.896 -13.273  0.00  0.00     0.145 A 
HETATM   11  C   UNK N   1     -19.754  24.304 -11.427  0.00  0.00     0.060 A 
HETATM   12  C   UNK N   1     -19.034  22.780 -13.176  0.00  0.00     0.039 A 
HETATM   13  C   UNK N   1     -21.036  26.222 -11.904  0.00  0.00     0.146 A 
HETATM   14  C   UNK N   1     -18.399  21.973 -12.211  0.00  0.00    -0.054 A 
HETATM   15  C   UNK N   1     -19.118  23.508 -10.474  0.00  0.00     0.039 A 
HETATM   16  C   UNK N   1     -18.442  22.343 -10.849  0.00  0.00    -0.054 A 
HETATM   17  C   UNK N   1     -21.682  27.384 -11.472  0.00  0.00     0.280 A 
HETATM   18  C   UNK N   1     -17.684  20.719 -12.644  0.00  0.00     0.049 C 
HETATM   19  C   UNK N   1     -17.774  21.506  -9.788  0.00  0.00     0.049 C 
HETATM   20  C   UNK N   1     -22.311  27.867 -13.715  0.00  0.00     0.328 A 
HETATM   21  H   UNK N   1     -22.789  29.065 -12.059  0.00  0.00     0.173 HD
ENDROOT
BRANCH   3  22
HETATM   22  C   UNK N   1     -20.385  24.456 -15.173  0.00  0.00     0.165 C 
BRANCH  22  23
HETATM   23  C   UNK N   1     -19.201  25.160 -15.873  0.00  0.00     0.167 C 
BRANCH  23  24
HETATM   24  O   UNK N   1     -19.636  26.398 -16.380  0.00  0.00    -0.391 OA
HETATM   25  H   UNK N   1     -18.843  26.991 -16.435  0.00  0.00     0.210 HD
ENDBRANCH  23  24
BRANCH  23  26
HETATM   26  C   UNK N   1     -18.619  24.318 -17.037  0.00  0.00     0.179 C 
BRANCH  26  27
HETATM   27  O   UNK N   1     -19.305  23.092 -17.099  0.00  0.00    -0.390 OA
HETATM   28  H   UNK N   1     -19.468  22.798 -16.165  0.00  0.00     0.210 HD
ENDBRANCH  26  27
BRANCH  26  29
HETATM   29  C   UNK N   1     -17.087  24.071 -16.907  0.00  0.00     0.173 C 
BRANCH  29  30
HETATM   30  O   UNK N   1     -16.736  24.141 -15.546  0.00  0.00    -0.391 OA
HETATM   31  H   UNK N   1     -17.471  24.609 -15.070  0.00  0.00     0.210 HD
ENDBRANCH  29  30
BRANCH  29  32
HETATM   32  C   UNK N   1     -16.244  25.081 -17.717  0.00  0.00     0.198 C 
BRANCH  32  33
HETATM   33  O   UNK N   1     -16.530  26.397 -17.327  0.00  0.00    -0.398 OA
HETATM   34  H   UNK N   1     -16.708  26.371 -16.349  0.00  0.00     0.209 HD
ENDBRANCH  32  33
ENDBRANCH  29  32
ENDBRANCH  26  29
ENDBRANCH  23  26
ENDBRANCH  22  23
ENDBRANCH   3  22
TORSDOF 9
ENDMDL
MODEL 6
REMARK VINA RESULT:      -6.7      1.432      1.975
REMARK  9 active torsions:
REMARK  status: ('A' for Active; 'I' for Inactive)
REMARK    1  A    between atoms: O_1  and  C_13 
REMARK    2  A    between atoms: O_2  and  C_15 
REMARK    3  A    between atoms: O_3  and  C_16 
REMARK    4  A    between atoms: O_4  and  C_22 
REMARK    5  A    between atoms: N_7  and  C_14 
REMARK    6  A    between atoms: C_13  and  C_14 
REMARK    7  A    between atoms: C_13  and  C_15 
REMARK    8  A    between atoms: C_15  and  C_16 
REMARK    9  A    between atoms: C_16  and  C_22 
ROOT
HETATM    1  O   UNK N   1     -17.405  22.104 -15.966  0.00  0.00    -0.265 OA
HETATM    2  O   UNK N   1     -20.723  25.003 -16.813  0.00  0.00    -0.247 OA
HETATM    3  N   UNK N   1     -20.053  23.672 -12.433  0.00  0.00    -0.327 N 
HETATM    4  N   UNK N   1     -17.949  22.094 -13.317  0.00  0.00    -0.347 N 
ATOM      5  HN  UNK N   1     -17.175  21.517 -13.645  1.00  0.00     0.166 HD
HETATM    6  N   UNK N   1     -20.399  24.380 -14.686  0.00  0.00    -0.292 N 
ATOM      7  HN  UNK N   1     -21.171  24.968 -14.374  1.00  0.00     0.172 HD
HETATM    8  N   UNK N   1     -19.045  23.555 -16.456  0.00  0.00    -0.273 N 
HETATM    9  C   UNK N   1     -19.336  22.893 -11.531  0.00  0.00     0.063 A 
HETATM   10  C   UNK N   1     -19.707  23.648 -13.768  0.00  0.00     0.145 A 
HETATM   11  C   UNK N   1     -18.261  22.101 -12.002  0.00  0.00     0.060 A 
HETATM   12  C   UNK N   1     -19.627  22.863 -10.144  0.00  0.00     0.039 A 
HETATM   13  C   UNK N   1     -18.643  22.838 -14.206  0.00  0.00     0.146 A 
HETATM   14  C   UNK N   1     -18.862  22.077  -9.259  0.00  0.00    -0.054 A 
HETATM   15  C   UNK N   1     -17.509  21.318 -11.126  0.00  0.00     0.039 A 
HETATM   16  C   UNK N   1     -17.794  21.299  -9.757  0.00  0.00    -0.054 A 
HETATM   17  C   UNK N   1     -18.322  22.804 -15.566  0.00  0.00     0.280 A 
HETATM   18  C   UNK N   1     -19.188  22.083  -7.787  0.00  0.00     0.049 C 
HETATM   19  C   UNK N   1     -16.952  20.446  -8.841  0.00  0.00     0.049 C 
HETATM   20  C   UNK N   1     -20.081  24.341 -16.019  0.00  0.00     0.328 A 
HETATM   21  H   UNK N   1     -18.807  23.525 -17.474  0.00  0.00     0.173 HD
ENDROOT
BRANCH   3  22
HETATM   22  C   UNK N   1     -21.198  24.515 -11.995  0.00  0.00     0.165 C 
BRANCH  22  23
HETATM   23  C   UNK N   1     -20.769  25.996 -11.891  0.00  0.00     0.167 C 
BRANCH  23  24
HETATM   24  O   UNK N   1     -20.420  26.281 -10.559  0.00  0.00    -0.391 OA
HETATM   25  H   UNK N   1     -21.212  26.697 -10.128  0.00  0.00     0.210 HD
ENDBRANCH  23  24
BRANCH  23  26
HETATM   26  C   UNK N   1     -21.892  26.967 -12.335  0.00  0.00     0.179 C 
BRANCH  26  27
HETATM   27  O   UNK N   1     -23.131  26.307 -12.238  0.00  0.00    -0.390 OA
HETATM   28  H   UNK N   1     -22.994  25.377 -12.559  0.00  0.00     0.210 HD
ENDBRANCH  26  27
BRANCH  26  29
HETATM   29  C   UNK N   1     -21.690  27.519 -13.777  0.00  0.00     0.173 C 
BRANCH  29  30
HETATM   30  O   UNK N   1     -21.430  28.899 -13.695  0.00  0.00    -0.391 OA
HETATM   31  H   UNK N   1     -22.304  29.370 -13.685  0.00  0.00     0.210 HD
ENDBRANCH  29  30
BRANCH  29  32
HETATM   32  C   UNK N   1     -22.909  27.271 -14.693  0.00  0.00     0.198 C 
BRANCH  32  33
HETATM   33  O   UNK N   1     -23.008  25.916 -15.040  0.00  0.00    -0.398 OA
HETATM   34  H   UNK N   1     -22.081  25.599 -15.210  0.00  0.00     0.209 HD
ENDBRANCH  32  33
ENDBRANCH  29  32
ENDBRANCH  26  29
ENDBRANCH  23  26
ENDBRANCH  22  23
ENDBRANCH   3  22
TORSDOF 9
ENDMDL
MODEL 7
REMARK VINA RESULT:      -6.6      2.050      6.120
REMARK  9 active torsions:
REMARK  status: ('A' for Active; 'I' for Inactive)
REMARK    1  A    between atoms: O_1  and  C_13 
REMARK    2  A    between atoms: O_2  and  C_15 
REMARK    3  A    between atoms: O_3  and  C_16 
REMARK    4  A    between atoms: O_4  and  C_22 
REMARK    5  A    between atoms: N_7  and  C_14 
REMARK    6  A    between atoms: C_13  and  C_14 
REMARK    7  A    between atoms: C_13  and  C_15 
REMARK    8  A    between atoms: C_15  and  C_16 
REMARK    9  A    between atoms: C_16  and  C_22 
ROOT
HETATM    1  O   UNK N   1     -20.020  24.026 -17.284  0.00  0.00    -0.265 OA
HETATM    2  O   UNK N   1     -17.111  21.368 -15.139  0.00  0.00    -0.247 OA
HETATM    3  N   UNK N   1     -19.511  24.438 -12.645  0.00  0.00    -0.327 N 
HETATM    4  N   UNK N   1     -20.745  25.260 -14.990  0.00  0.00    -0.347 N 
ATOM      5  HN  UNK N   1     -21.198  25.559 -15.854  1.00  0.00     0.166 HD
HETATM    6  N   UNK N   1     -18.278  22.839 -13.918  0.00  0.00    -0.292 N 
ATOM      7  HN  UNK N   1     -17.821  22.523 -13.063  1.00  0.00     0.172 HD
HETATM    8  N   UNK N   1     -18.552  22.665 -16.271  0.00  0.00    -0.273 N 
HETATM    9  C   UNK N   1     -20.445  25.468 -12.620  0.00  0.00     0.063 A 
HETATM   10  C   UNK N   1     -19.205  23.836 -13.848  0.00  0.00     0.145 A 
HETATM   11  C   UNK N   1     -21.070  25.867 -13.827  0.00  0.00     0.060 A 
HETATM   12  C   UNK N   1     -20.816  26.137 -11.426  0.00  0.00     0.039 A 
HETATM   13  C   UNK N   1     -19.832  24.266 -15.032  0.00  0.00     0.146 A 
HETATM   14  C   UNK N   1     -21.785  27.160 -11.439  0.00  0.00    -0.054 A 
HETATM   15  C   UNK N   1     -22.023  26.885 -13.839  0.00  0.00     0.039 A 
HETATM   16  C   UNK N   1     -22.392  27.536 -12.658  0.00  0.00    -0.054 A 
HETATM   17  C   UNK N   1     -19.490  23.663 -16.246  0.00  0.00     0.280 A 
HETATM   18  C   UNK N   1     -22.168  27.839 -10.149  0.00  0.00     0.049 C 
HETATM   19  C   UNK N   1     -23.433  28.625 -12.712  0.00  0.00     0.049 C 
HETATM   20  C   UNK N   1     -17.946  22.253 -15.111  0.00  0.00     0.328 A 
HETATM   21  H   UNK N   1     -18.294  22.218 -17.181  0.00  0.00     0.173 HD
ENDROOT
BRANCH   3  22
HETATM   22  C   UNK N   1     -18.817  23.986 -11.409  0.00  0.00     0.165 C 
BRANCH  22  23
HETATM   23  C   UNK N   1     -19.441  22.670 -10.892  0.00  0.00     0.167 C 
BRANCH  23  24
HETATM   24  O   UNK N   1     -20.505  22.975 -10.024  0.00  0.00    -0.391 OA
HETATM   25  H   UNK N   1     -20.155  22.922  -9.097  0.00  0.00     0.210 HD
ENDBRANCH  23  24
BRANCH  23  26
HETATM   26  C   UNK N   1     -18.414  21.789 -10.136  0.00  0.00     0.179 C 
BRANCH  26  27
HETATM   27  O   UNK N   1     -17.780  22.569  -9.152  0.00  0.00    -0.390 OA
HETATM   28  H   UNK N   1     -18.191  23.472  -9.184  0.00  0.00     0.210 HD
ENDBRANCH  26  27
BRANCH  26  29
HETATM   29  C   UNK N   1     -17.353  21.143 -11.075  0.00  0.00     0.173 C 
BRANCH  29  30
HETATM   30  O   UNK N   1     -18.025  20.433 -12.088  0.00  0.00    -0.391 OA
HETATM   31  H   UNK N   1     -18.734  19.890 -11.654  0.00  0.00     0.210 HD
ENDBRANCH  29  30
BRANCH  29  32
HETATM   32  C   UNK N   1     -16.386  20.197 -10.329  0.00  0.00     0.198 C 
BRANCH  32  33
HETATM   33  O   UNK N   1     -16.889  19.862  -9.065  0.00  0.00    -0.398 OA
HETATM   34  H   UNK N   1     -17.289  20.691  -8.689  0.00  0.00     0.209 HD
ENDBRANCH  32  33
ENDBRANCH  29  32
ENDBRANCH  26  29
ENDBRANCH  23  26
ENDBRANCH  22  23
ENDBRANCH   3  22
TORSDOF 9
ENDMDL
MODEL 8
REMARK VINA RESULT:      -6.5     24.215     27.848
REMARK  9 active torsions:
REMARK  status: ('A' for Active; 'I' for Inactive)
REMARK    1  A    between atoms: O_1  and  C_13 
REMARK    2  A    between atoms: O_2  and  C_15 
REMARK    3  A    between atoms: O_3  and  C_16 
REMARK    4  A    between atoms: O_4  and  C_22 
REMARK    5  A    between atoms: N_7  and  C_14 
REMARK    6  A    between atoms: C_13  and  C_14 
REMARK    7  A    between atoms: C_13  and  C_15 
REMARK    8  A    between atoms: C_15  and  C_16 
REMARK    9  A    between atoms: C_16  and  C_22 
ROOT
HETATM    1  O   UNK N   1     -30.397  43.734 -10.106  0.00  0.00    -0.265 OA
HETATM    2  O   UNK N   1     -32.457  42.933  -6.202  0.00  0.00    -0.247 OA
HETATM    3  N   UNK N   1     -31.463  47.320  -7.285  0.00  0.00    -0.327 N 
HETATM    4  N   UNK N   1     -30.360  46.400  -9.660  0.00  0.00    -0.347 N 
ATOM      5  HN  UNK N   1     -29.957  46.059 -10.532  1.00  0.00     0.166 HD
HETATM    6  N   UNK N   1     -31.996  45.062  -6.721  0.00  0.00    -0.292 N 
ATOM      7  HN  UNK N   1     -32.410  45.387  -5.848  1.00  0.00     0.172 HD
HETATM    8  N   UNK N   1     -31.430  43.266  -8.170  0.00  0.00    -0.273 N 
HETATM    9  C   UNK N   1     -30.894  48.214  -8.184  0.00  0.00     0.063 A 
HETATM   10  C   UNK N   1     -31.469  45.973  -7.587  0.00  0.00     0.145 A 
HETATM   11  C   UNK N   1     -30.344  47.726  -9.395  0.00  0.00     0.060 A 
HETATM   12  C   UNK N   1     -30.849  49.612  -7.951  0.00  0.00     0.039 A 
HETATM   13  C   UNK N   1     -30.899  45.518  -8.791  0.00  0.00     0.146 A 
HETATM   14  C   UNK N   1     -30.285  50.489  -8.898  0.00  0.00    -0.054 A 
HETATM   15  C   UNK N   1     -29.779  48.594 -10.328  0.00  0.00     0.039 A 
HETATM   16  C   UNK N   1     -29.745  49.973 -10.097  0.00  0.00    -0.054 A 
HETATM   17  C   UNK N   1     -30.890  44.148  -9.069  0.00  0.00     0.280 A 
HETATM   18  C   UNK N   1     -30.269  51.971  -8.624  0.00  0.00     0.049 C 
HETATM   19  C   UNK N   1     -29.133  50.879 -11.135  0.00  0.00     0.049 C 
HETATM   20  C   UNK N   1     -31.982  43.720  -6.999  0.00  0.00     0.328 A 
HETATM   21  H   UNK N   1     -31.417  42.241  -8.377  0.00  0.00     0.173 HD
ENDROOT
BRANCH   3  22
HETATM   22  C   UNK N   1     -32.046  47.777  -5.995  0.00  0.00     0.165 C 
BRANCH  22  23
HETATM   23  C   UNK N   1     -33.575  47.959  -6.129  0.00  0.00     0.167 C 
BRANCH  23  24
HETATM   24  O   UNK N   1     -33.837  49.164  -6.804  0.00  0.00    -0.391 OA
HETATM   25  H   UNK N   1     -33.400  49.107  -7.693  0.00  0.00     0.210 HD
ENDBRANCH  23  24
BRANCH  23  26
HETATM   26  C   UNK N   1     -34.287  47.989  -4.753  0.00  0.00     0.179 C 
BRANCH  26  27
HETATM   27  O   UNK N   1     -33.328  47.814  -3.739  0.00  0.00    -0.390 OA
HETATM   28  H   UNK N   1     -33.820  47.742  -2.879  0.00  0.00     0.210 HD
ENDBRANCH  26  27
BRANCH  26  29
HETATM   29  C   UNK N   1     -35.409  46.918  -4.621  0.00  0.00     0.173 C 
BRANCH  29  30
HETATM   30  O   UNK N   1     -35.170  46.159  -3.460  0.00  0.00    -0.391 OA
HETATM   31  H   UNK N   1     -34.502  46.649  -2.913  0.00  0.00     0.210 HD
ENDBRANCH  29  30
BRANCH  29  32
HETATM   32  C   UNK N   1     -35.496  45.982  -5.847  0.00  0.00     0.198 C 
BRANCH  32  33
HETATM   33  O   UNK N   1     -34.788  44.794  -5.621  0.00  0.00    -0.398 OA
HETATM   34  H   UNK N   1     -35.153  44.120  -6.255  0.00  0.00     0.209 HD
ENDBRANCH  32  33
ENDBRANCH  29  32
ENDBRANCH  26  29
ENDBRANCH  23  26
ENDBRANCH  22  23
ENDBRANCH   3  22
TORSDOF 9
ENDMDL
MODEL 9
REMARK VINA RESULT:      -6.5      6.653     10.305
REMARK  9 active torsions:
REMARK  status: ('A' for Active; 'I' for Inactive)
REMARK    1  A    between atoms: O_1  and  C_13 
REMARK    2  A    between atoms: O_2  and  C_15 
REMARK    3  A    between atoms: O_3  and  C_16 
REMARK    4  A    between atoms: O_4  and  C_22 
REMARK    5  A    between atoms: N_7  and  C_14 
REMARK    6  A    between atoms: C_13  and  C_14 
REMARK    7  A    between atoms: C_13  and  C_15 
REMARK    8  A    between atoms: C_15  and  C_16 
REMARK    9  A    between atoms: C_16  and  C_22 
ROOT
HETATM    1  O   UNK N   1     -19.452  21.602  -3.525  0.00  0.00    -0.265 OA
HETATM    2  O   UNK N   1     -16.988  18.406  -1.565  0.00  0.00    -0.247 OA
HETATM    3  N   UNK N   1     -16.433  19.113  -6.103  0.00  0.00    -0.327 N 
HETATM    4  N   UNK N   1     -18.343  21.120  -5.944  0.00  0.00    -0.347 N 
ATOM      5  HN  UNK N   1     -19.044  21.858  -5.882  1.00  0.00     0.166 HD
HETATM    6  N   UNK N   1     -16.698  18.749  -3.759  0.00  0.00    -0.292 N 
ATOM      7  HN  UNK N   1     -15.993  18.013  -3.802  1.00  0.00     0.172 HD
HETATM    8  N   UNK N   1     -18.247  20.021  -2.484  0.00  0.00    -0.273 N 
HETATM    9  C   UNK N   1     -16.809  19.813  -7.244  0.00  0.00     0.063 A 
HETATM   10  C   UNK N   1     -17.022  19.427  -4.896  0.00  0.00     0.145 A 
HETATM   11  C   UNK N   1     -17.780  20.839  -7.140  0.00  0.00     0.060 A 
HETATM   12  C   UNK N   1     -16.251  19.553  -8.522  0.00  0.00     0.039 A 
HETATM   13  C   UNK N   1     -17.996  20.441  -4.829  0.00  0.00     0.146 A 
HETATM   14  C   UNK N   1     -16.642  20.301  -9.650  0.00  0.00    -0.054 A 
HETATM   15  C   UNK N   1     -18.171  21.573  -8.260  0.00  0.00     0.039 A 
HETATM   16  C   UNK N   1     -17.611  21.319  -9.516  0.00  0.00    -0.054 A 
HETATM   17  C   UNK N   1     -18.603  20.729  -3.603  0.00  0.00     0.280 A 
HETATM   18  C   UNK N   1     -16.014  20.009 -10.990  0.00  0.00     0.049 C 
HETATM   19  C   UNK N   1     -18.054  22.140 -10.699  0.00  0.00     0.049 C 
HETATM   20  C   UNK N   1     -17.298  19.034  -2.560  0.00  0.00     0.328 A 
HETATM   21  H   UNK N   1     -18.706  20.233  -1.568  0.00  0.00     0.173 HD
ENDROOT
BRANCH   3  22
HETATM   22  C   UNK N   1     -15.426  18.019  -6.157  0.00  0.00     0.165 C 
BRANCH  22  23
HETATM   23  C   UNK N   1     -13.995  18.601  -6.108  0.00  0.00     0.167 C 
BRANCH  23  24
HETATM   24  O   UNK N   1     -13.281  18.161  -7.237  0.00  0.00    -0.391 OA
HETATM   25  H   UNK N   1     -13.880  17.558  -7.749  0.00  0.00     0.210 HD
ENDBRANCH  23  24
BRANCH  23  26
HETATM   26  C   UNK N   1     -13.229  18.173  -4.832  0.00  0.00     0.179 C 
BRANCH  26  27
HETATM   27  O   UNK N   1     -14.121  17.522  -3.960  0.00  0.00    -0.390 OA
HETATM   28  H   UNK N   1     -14.841  17.126  -4.519  0.00  0.00     0.210 HD
ENDBRANCH  26  27
BRANCH  26  29
HETATM   29  C   UNK N   1     -12.539  19.363  -4.103  0.00  0.00     0.173 C 
BRANCH  29  30
HETATM   30  O   UNK N   1     -11.166  19.081  -3.984  0.00  0.00    -0.391 OA
HETATM   31  H   UNK N   1     -10.740  19.286  -4.857  0.00  0.00     0.210 HD
ENDBRANCH  29  30
BRANCH  29  32
HETATM   32  C   UNK N   1     -13.137  19.641  -2.705  0.00  0.00     0.198 C 
BRANCH  32  33
HETATM   33  O   UNK N   1     -14.264  20.470  -2.799  0.00  0.00    -0.398 OA
HETATM   34  H   UNK N   1     -14.247  21.063  -2.001  0.00  0.00     0.209 HD
ENDBRANCH  32  33
ENDBRANCH  29  32
ENDBRANCH  26  29
ENDBRANCH  23  26
ENDBRANCH  22  23
ENDBRANCH   3  22
TORSDOF 9
ENDMDL
