MODEL 1
REMARK VINA RESULT:      -8.5      0.000      0.000
REMARK  12 active torsions:
REMARK  status: ('A' for Active; 'I' for Inactive)
REMARK    1  A    between atoms: O_2  and  C_12 
REMARK    2  A    between atoms: O_2  and  C_24 
REMARK    3  A    between atoms: O_3  and  C_18 
REMARK    4  A    between atoms: O_4  and  C_23 
REMARK    5  A    between atoms: O_5  and  C_25 
REMARK    6  A    between atoms: O_6  and  C_26 
REMARK    7  A    between atoms: O_8  and  C_27 
REMARK    8  A    between atoms: O_9  and  C_31 
REMARK    9  A    between atoms: O_10  and  C_32 
REMARK   10  A    between atoms: O_11  and  C_33 
REMARK   11  A    between atoms: C_13  and  C_16 
REMARK   12  A    between atoms: C_24  and  C_28 
ROOT
HETATM    1  O   UNK N   1     -21.954  24.894 -16.314  0.00  0.00    -0.338 OA
HETATM    2  C   UNK N   1     -21.182  24.855 -14.055  0.00  0.00     0.170 C 
HETATM    3  C   UNK N   1     -20.966  25.401 -15.482  0.00  0.00     0.192 C 
HETATM    4  C   UNK N   1     -22.576  25.323 -13.572  0.00  0.00     0.080 C 
HETATM    5  C   UNK N   1     -23.638  25.086 -14.612  0.00  0.00     0.011 A 
HETATM    6  C   UNK N   1     -23.264  24.869 -15.953  0.00  0.00     0.081 A 
HETATM    7  C   UNK N   1     -24.997  25.088 -14.253  0.00  0.00     0.077 A 
HETATM    8  C   UNK N   1     -24.246  24.631 -16.919  0.00  0.00     0.074 A 
HETATM    9  C   UNK N   1     -25.973  24.850 -15.229  0.00  0.00     0.073 A 
HETATM   10  C   UNK N   1     -25.601  24.621 -16.559  0.00  0.00     0.071 A 
ENDROOT
BRANCH   2  11
HETATM   11  O   UNK N   1     -20.173  25.305 -13.219  0.00  0.00    -0.309 OA
BRANCH  11  12
HETATM   12  C   UNK N   1     -19.998  24.934 -11.920  0.00  0.00     0.294 C 
HETATM   13  O   UNK N   1     -20.397  25.640 -11.005  0.00  0.00    -0.259 OA
BRANCH  12  14
HETATM   14  C   UNK N   1     -19.230  23.714 -11.618  0.00  0.00     0.045 A 
HETATM   15  C   UNK N   1     -18.849  23.433 -10.298  0.00  0.00     0.057 A 
HETATM   16  C   UNK N   1     -18.081  22.298 -10.009  0.00  0.00     0.102 A 
HETATM   17  C   UNK N   1     -17.719  21.417 -11.045  0.00  0.00     0.132 A 
HETATM   18  C   UNK N   1     -18.116  21.686 -12.364  0.00  0.00     0.102 A 
HETATM   19  C   UNK N   1     -18.855  22.843 -12.649  0.00  0.00     0.057 A 
BRANCH  16  20
HETATM   20  O   UNK N   1     -17.682  22.057  -8.743  0.00  0.00    -0.358 OA
HETATM   21  H   UNK N   1     -18.211  22.338  -7.981  0.00  0.00     0.218 HD
ENDBRANCH  16  20
BRANCH  17  22
HETATM   22  O   UNK N   1     -16.986  20.311 -10.789  0.00  0.00    -0.356 OA
HETATM   23  H   UNK N   1     -16.593  20.144  -9.921  0.00  0.00     0.218 HD
ENDBRANCH  17  22
BRANCH  18  24
HETATM   24  O   UNK N   1     -17.782  20.832 -13.353  0.00  0.00    -0.358 OA
HETATM   25  H   UNK N   1     -18.357  20.691 -14.119  0.00  0.00     0.218 HD
ENDBRANCH  18  24
ENDBRANCH  12  14
ENDBRANCH  11  12
ENDBRANCH   2  11
BRANCH   3  26
HETATM   26  C   UNK N   1     -19.606  25.058 -16.047  0.00  0.00    -0.021 A 
HETATM   27  C   UNK N   1     -19.033  23.798 -15.797  0.00  0.00     0.049 A 
HETATM   28  C   UNK N   1     -17.768  23.477 -16.313  0.00  0.00     0.102 A 
HETATM   29  C   UNK N   1     -17.070  24.418 -17.091  0.00  0.00     0.132 A 
HETATM   30  C   UNK N   1     -17.639  25.673 -17.344  0.00  0.00     0.102 A 
HETATM   31  C   UNK N   1     -18.899  25.991 -16.819  0.00  0.00     0.049 A 
BRANCH  28  32
HETATM   32  O   UNK N   1     -17.220  22.269 -16.062  0.00  0.00    -0.358 OA
HETATM   33  H   UNK N   1     -17.520  21.467 -16.515  0.00  0.00     0.218 HD
ENDBRANCH  28  32
BRANCH  29  34
HETATM   34  O   UNK N   1     -15.851  24.130 -17.599  0.00  0.00    -0.356 OA
HETATM   35  H   UNK N   1     -15.273  24.808 -17.977  0.00  0.00     0.218 HD
ENDBRANCH  29  34
BRANCH  30  36
HETATM   36  O   UNK N   1     -16.968  26.572 -18.094  0.00  0.00    -0.358 OA
HETATM   37  H   UNK N   1     -16.491  27.313 -17.694  0.00  0.00     0.218 HD
ENDBRANCH  30  36
ENDBRANCH   3  26
BRANCH   7  38
HETATM   38  O   UNK N   1     -25.355  25.299 -12.967  0.00  0.00    -0.360 OA
HETATM   39  H   UNK N   1     -25.059  24.720 -12.250  0.00  0.00     0.217 HD
ENDBRANCH   7  38
BRANCH  10  40
HETATM   40  O   UNK N   1     -26.556  24.396 -17.484  0.00  0.00    -0.361 OA
HETATM   41  H   UNK N   1     -26.925  25.114 -18.018  0.00  0.00     0.217 HD
ENDBRANCH  10  40
TORSDOF 12
ENDMDL
MODEL 2
REMARK VINA RESULT:      -8.5      0.033      2.046
REMARK  12 active torsions:
REMARK  status: ('A' for Active; 'I' for Inactive)
REMARK    1  A    between atoms: O_2  and  C_12 
REMARK    2  A    between atoms: O_2  and  C_24 
REMARK    3  A    between atoms: O_3  and  C_18 
REMARK    4  A    between atoms: O_4  and  C_23 
REMARK    5  A    between atoms: O_5  and  C_25 
REMARK    6  A    between atoms: O_6  and  C_26 
REMARK    7  A    between atoms: O_8  and  C_27 
REMARK    8  A    between atoms: O_9  and  C_31 
REMARK    9  A    between atoms: O_10  and  C_32 
REMARK   10  A    between atoms: O_11  and  C_33 
REMARK   11  A    between atoms: C_13  and  C_16 
REMARK   12  A    between atoms: C_24  and  C_28 
ROOT
HETATM    1  O   UNK N   1     -21.959  24.873 -16.296  0.00  0.00    -0.338 OA
HETATM    2  C   UNK N   1     -21.197  24.841 -14.034  0.00  0.00     0.170 C 
HETATM    3  C   UNK N   1     -20.975  25.383 -15.461  0.00  0.00     0.192 C 
HETATM    4  C   UNK N   1     -22.593  25.309 -13.558  0.00  0.00     0.080 C 
HETATM    5  C   UNK N   1     -23.651  25.069 -14.601  0.00  0.00     0.011 A 
HETATM    6  C   UNK N   1     -23.271  24.848 -15.941  0.00  0.00     0.081 A 
HETATM    7  C   UNK N   1     -25.011  25.071 -14.248  0.00  0.00     0.077 A 
HETATM    8  C   UNK N   1     -24.248  24.607 -16.910  0.00  0.00     0.074 A 
HETATM    9  C   UNK N   1     -25.983  24.831 -15.228  0.00  0.00     0.073 A 
HETATM   10  C   UNK N   1     -25.606  24.598 -16.555  0.00  0.00     0.071 A 
ENDROOT
BRANCH   2  11
HETATM   11  O   UNK N   1     -20.192  25.293 -13.195  0.00  0.00    -0.309 OA
BRANCH  11  12
HETATM   12  C   UNK N   1     -20.013  24.914 -11.898  0.00  0.00     0.294 C 
HETATM   13  O   UNK N   1     -20.444  25.594 -10.980  0.00  0.00    -0.259 OA
BRANCH  12  14
HETATM   14  C   UNK N   1     -19.202  23.720 -11.604  0.00  0.00     0.045 A 
HETATM   15  C   UNK N   1     -18.842  22.845 -12.638  0.00  0.00     0.057 A 
HETATM   16  C   UNK N   1     -18.109  21.685 -12.360  0.00  0.00     0.102 A 
HETATM   17  C   UNK N   1     -17.700  21.415 -11.041  0.00  0.00     0.132 A 
HETATM   18  C   UNK N   1     -18.042  22.301 -10.007  0.00  0.00     0.102 A 
HETATM   19  C   UNK N   1     -18.806  23.442 -10.290  0.00  0.00     0.057 A 
BRANCH  16  20
HETATM   20  O   UNK N   1     -17.803  20.825 -13.354  0.00  0.00    -0.358 OA
HETATM   21  H   UNK N   1     -18.322  20.786 -14.171  0.00  0.00     0.218 HD
ENDBRANCH  16  20
BRANCH  17  22
HETATM   22  O   UNK N   1     -16.983  20.307 -10.751  0.00  0.00    -0.356 OA
HETATM   23  H   UNK N   1     -17.356  19.571 -10.246  0.00  0.00     0.218 HD
ENDBRANCH  17  22
BRANCH  18  24
HETATM   24  O   UNK N   1     -17.636  22.050  -8.746  0.00  0.00    -0.358 OA
HETATM   25  H   UNK N   1     -18.252  21.745  -8.064  0.00  0.00     0.218 HD
ENDBRANCH  18  24
ENDBRANCH  12  14
ENDBRANCH  11  12
ENDBRANCH   2  11
BRANCH   3  26
HETATM   26  C   UNK N   1     -19.612  25.038 -16.020  0.00  0.00    -0.021 A 
HETATM   27  C   UNK N   1     -18.905  25.979 -16.790  0.00  0.00     0.049 A 
HETATM   28  C   UNK N   1     -17.644  25.662 -17.318  0.00  0.00     0.102 A 
HETATM   29  C   UNK N   1     -17.079  24.398 -17.070  0.00  0.00     0.132 A 
HETATM   30  C   UNK N   1     -17.780  23.459 -16.301  0.00  0.00     0.102 A 
HETATM   31  C   UNK N   1     -19.043  23.779 -15.784  0.00  0.00     0.049 A 
BRANCH  28  32
HETATM   32  O   UNK N   1     -16.974  26.566 -18.064  0.00  0.00    -0.358 OA
HETATM   33  H   UNK N   1     -16.010  26.653 -18.018  0.00  0.00     0.218 HD
ENDBRANCH  28  32
BRANCH  29  34
HETATM   34  O   UNK N   1     -15.865  24.071 -17.566  0.00  0.00    -0.356 OA
HETATM   35  H   UNK N   1     -15.757  23.475 -18.320  0.00  0.00     0.218 HD
ENDBRANCH  29  34
BRANCH  30  36
HETATM   36  O   UNK N   1     -17.234  22.249 -16.062  0.00  0.00    -0.358 OA
HETATM   37  H   UNK N   1     -16.526  21.891 -16.617  0.00  0.00     0.218 HD
ENDBRANCH  30  36
ENDBRANCH   3  26
BRANCH   7  38
HETATM   38  O   UNK N   1     -25.375  25.286 -12.965  0.00  0.00    -0.360 OA
HETATM   39  H   UNK N   1     -26.300  25.402 -12.707  0.00  0.00     0.217 HD
ENDBRANCH   7  38
BRANCH  10  40
HETATM   40  O   UNK N   1     -26.556  24.370 -17.484  0.00  0.00    -0.361 OA
HETATM   41  H   UNK N   1     -27.421  24.005 -17.247  0.00  0.00     0.217 HD
ENDBRANCH  10  40
TORSDOF 12
ENDMDL
MODEL 3
REMARK VINA RESULT:      -8.1     31.726     33.804
REMARK  12 active torsions:
REMARK  status: ('A' for Active; 'I' for Inactive)
REMARK    1  A    between atoms: O_2  and  C_12 
REMARK    2  A    between atoms: O_2  and  C_24 
REMARK    3  A    between atoms: O_3  and  C_18 
REMARK    4  A    between atoms: O_4  and  C_23 
REMARK    5  A    between atoms: O_5  and  C_25 
REMARK    6  A    between atoms: O_6  and  C_26 
REMARK    7  A    between atoms: O_8  and  C_27 
REMARK    8  A    between atoms: O_9  and  C_31 
REMARK    9  A    between atoms: O_10  and  C_32 
REMARK   10  A    between atoms: O_11  and  C_33 
REMARK   11  A    between atoms: C_13  and  C_16 
REMARK   12  A    between atoms: C_24  and  C_28 
ROOT
HETATM    1  O   UNK N   1     -38.609   0.195  -4.109  0.00  0.00    -0.338 OA
HETATM    2  C   UNK N   1     -39.781  -1.760  -3.399  0.00  0.00     0.170 C 
HETATM    3  C   UNK N   1     -38.413  -1.065  -3.561  0.00  0.00     0.192 C 
HETATM    4  C   UNK N   1     -40.646  -0.896  -2.449  0.00  0.00     0.080 C 
HETATM    5  C   UNK N   1     -40.608   0.560  -2.827  0.00  0.00     0.011 A 
HETATM    6  C   UNK N   1     -39.578   1.037  -3.663  0.00  0.00     0.081 A 
HETATM    7  C   UNK N   1     -41.590   1.445  -2.347  0.00  0.00     0.077 A 
HETATM    8  C   UNK N   1     -39.550   2.385  -4.031  0.00  0.00     0.074 A 
HETATM    9  C   UNK N   1     -41.550   2.794  -2.721  0.00  0.00     0.073 A 
HETATM   10  C   UNK N   1     -40.535   3.265  -3.561  0.00  0.00     0.071 A 
ENDROOT
BRANCH   2  11
HETATM   11  O   UNK N   1     -39.604  -3.042  -2.905  0.00  0.00    -0.309 OA
BRANCH  11  12
HETATM   12  C   UNK N   1     -40.068  -4.185  -3.484  0.00  0.00     0.294 C 
HETATM   13  O   UNK N   1     -40.675  -5.019  -2.830  0.00  0.00    -0.259 OA
BRANCH  12  14
HETATM   14  C   UNK N   1     -39.744  -4.458  -4.895  0.00  0.00     0.045 A 
HETATM   15  C   UNK N   1     -38.755  -5.399  -5.217  0.00  0.00     0.057 A 
HETATM   16  C   UNK N   1     -38.410  -5.632  -6.554  0.00  0.00     0.102 A 
HETATM   17  C   UNK N   1     -39.084  -4.945  -7.581  0.00  0.00     0.132 A 
HETATM   18  C   UNK N   1     -40.088  -4.018  -7.260  0.00  0.00     0.102 A 
HETATM   19  C   UNK N   1     -40.403  -3.765  -5.918  0.00  0.00     0.057 A 
BRANCH  16  20
HETATM   20  O   UNK N   1     -37.428  -6.507  -6.855  0.00  0.00    -0.358 OA
HETATM   21  H   UNK N   1     -37.504  -7.121  -7.600  0.00  0.00     0.218 HD
ENDBRANCH  16  20
BRANCH  17  22
HETATM   22  O   UNK N   1     -38.775  -5.161  -8.878  0.00  0.00    -0.356 OA
HETATM   23  H   UNK N   1     -39.294  -5.755  -9.439  0.00  0.00     0.218 HD
ENDBRANCH  17  22
BRANCH  18  24
HETATM   24  O   UNK N   1     -40.745  -3.372  -8.246  0.00  0.00    -0.358 OA
HETATM   25  H   UNK N   1     -41.709  -3.411  -8.325  0.00  0.00     0.218 HD
ENDBRANCH  18  24
ENDBRANCH  12  14
ENDBRANCH  11  12
ENDBRANCH   2  11
BRANCH   3  26
HETATM   26  C   UNK N   1     -37.450  -1.847  -4.427  0.00  0.00    -0.021 A 
HETATM   27  C   UNK N   1     -37.432  -1.650  -5.819  0.00  0.00     0.049 A 
HETATM   28  C   UNK N   1     -36.546  -2.378  -6.628  0.00  0.00     0.102 A 
HETATM   29  C   UNK N   1     -35.665  -3.306  -6.043  0.00  0.00     0.132 A 
HETATM   30  C   UNK N   1     -35.680  -3.502  -4.655  0.00  0.00     0.102 A 
HETATM   31  C   UNK N   1     -36.573  -2.778  -3.853  0.00  0.00     0.049 A 
BRANCH  28  32
HETATM   32  O   UNK N   1     -36.539  -2.192  -7.966  0.00  0.00    -0.358 OA
HETATM   33  H   UNK N   1     -36.943  -2.829  -8.573  0.00  0.00     0.218 HD
ENDBRANCH  28  32
BRANCH  29  34
HETATM   34  O   UNK N   1     -34.803  -4.018  -6.802  0.00  0.00    -0.356 OA
HETATM   35  H   UNK N   1     -34.939  -4.954  -7.002  0.00  0.00     0.218 HD
ENDBRANCH  29  34
BRANCH  30  36
HETATM   36  O   UNK N   1     -34.832  -4.390  -4.097  0.00  0.00    -0.358 OA
HETATM   37  H   UNK N   1     -33.928  -4.506  -4.424  0.00  0.00     0.218 HD
ENDBRANCH  30  36
ENDBRANCH   3  26
BRANCH   7  38
HETATM   38  O   UNK N   1     -42.575   0.987  -1.545  0.00  0.00    -0.360 OA
HETATM   39  H   UNK N   1     -42.403   0.362  -0.826  0.00  0.00     0.217 HD
ENDBRANCH   7  38
BRANCH  10  40
HETATM   40  O   UNK N   1     -40.514   4.568  -3.908  0.00  0.00    -0.361 OA
HETATM   41  H   UNK N   1     -40.871   5.255  -3.326  0.00  0.00     0.217 HD
ENDBRANCH  10  40
TORSDOF 12
ENDMDL
MODEL 4
REMARK VINA RESULT:      -8.0      2.269      7.967
REMARK  12 active torsions:
REMARK  status: ('A' for Active; 'I' for Inactive)
REMARK    1  A    between atoms: O_2  and  C_12 
REMARK    2  A    between atoms: O_2  and  C_24 
REMARK    3  A    between atoms: O_3  and  C_18 
REMARK    4  A    between atoms: O_4  and  C_23 
REMARK    5  A    between atoms: O_5  and  C_25 
REMARK    6  A    between atoms: O_6  and  C_26 
REMARK    7  A    between atoms: O_8  and  C_27 
REMARK    8  A    between atoms: O_9  and  C_31 
REMARK    9  A    between atoms: O_10  and  C_32 
REMARK   10  A    between atoms: O_11  and  C_33 
REMARK   11  A    between atoms: C_13  and  C_16 
REMARK   12  A    between atoms: C_24  and  C_28 
ROOT
HETATM    1  O   UNK N   1     -19.846  23.114  -9.550  0.00  0.00    -0.338 OA
HETATM    2  C   UNK N   1     -18.600  22.687 -11.540  0.00  0.00     0.170 C 
HETATM    3  C   UNK N   1     -19.318  23.739 -10.670  0.00  0.00     0.192 C 
HETATM    4  C   UNK N   1     -17.464  22.062 -10.694  0.00  0.00     0.080 C 
HETATM    5  C   UNK N   1     -17.939  21.671  -9.321  0.00  0.00     0.011 A 
HETATM    6  C   UNK N   1     -19.135  22.220  -8.814  0.00  0.00     0.081 A 
HETATM    7  C   UNK N   1     -17.194  20.770  -8.541  0.00  0.00     0.077 A 
HETATM    8  C   UNK N   1     -19.589  21.846  -7.547  0.00  0.00     0.074 A 
HETATM    9  C   UNK N   1     -17.657  20.404  -7.271  0.00  0.00     0.073 A 
HETATM   10  C   UNK N   1     -18.851  20.937  -6.773  0.00  0.00     0.071 A 
ENDROOT
BRANCH   2  11
HETATM   11  O   UNK N   1     -18.111  23.280 -12.694  0.00  0.00    -0.309 OA
BRANCH  11  12
HETATM   12  C   UNK N   1     -18.165  22.742 -13.944  0.00  0.00     0.294 C 
HETATM   13  O   UNK N   1     -17.785  21.600 -14.154  0.00  0.00    -0.259 OA
BRANCH  12  14
HETATM   14  C   UNK N   1     -18.594  23.587 -15.072  0.00  0.00     0.045 A 
HETATM   15  C   UNK N   1     -17.698  23.877 -16.111  0.00  0.00     0.057 A 
HETATM   16  C   UNK N   1     -18.084  24.716 -17.164  0.00  0.00     0.102 A 
HETATM   17  C   UNK N   1     -19.389  25.240 -17.198  0.00  0.00     0.132 A 
HETATM   18  C   UNK N   1     -20.294  24.934 -16.170  0.00  0.00     0.102 A 
HETATM   19  C   UNK N   1     -19.887  24.122 -15.101  0.00  0.00     0.057 A 
BRANCH  16  20
HETATM   20  O   UNK N   1     -17.202  25.026 -18.138  0.00  0.00    -0.358 OA
HETATM   21  H   UNK N   1     -16.466  24.439 -18.363  0.00  0.00     0.218 HD
ENDBRANCH  16  20
BRANCH  17  22
HETATM   22  O   UNK N   1     -19.787  26.043 -18.210  0.00  0.00    -0.356 OA
HETATM   23  H   UNK N   1     -19.400  25.985 -19.095  0.00  0.00     0.218 HD
ENDBRANCH  17  22
BRANCH  18  24
HETATM   24  O   UNK N   1     -21.550  25.423 -16.212  0.00  0.00    -0.358 OA
HETATM   25  H   UNK N   1     -21.735  26.323 -16.519  0.00  0.00     0.218 HD
ENDBRANCH  18  24
ENDBRANCH  12  14
ENDBRANCH  11  12
ENDBRANCH   2  11
BRANCH   3  26
HETATM   26  C   UNK N   1     -20.419  24.466 -11.409  0.00  0.00    -0.021 A 
HETATM   27  C   UNK N   1     -20.210  25.773 -11.883  0.00  0.00     0.049 A 
HETATM   28  C   UNK N   1     -21.232  26.456 -12.561  0.00  0.00     0.102 A 
HETATM   29  C   UNK N   1     -22.471  25.826 -12.776  0.00  0.00     0.132 A 
HETATM   30  C   UNK N   1     -22.681  24.522 -12.307  0.00  0.00     0.102 A 
HETATM   31  C   UNK N   1     -21.660  23.849 -11.622  0.00  0.00     0.049 A 
BRANCH  28  32
HETATM   32  O   UNK N   1     -21.028  27.714 -13.006  0.00  0.00    -0.358 OA
HETATM   33  H   UNK N   1     -21.345  28.008 -13.873  0.00  0.00     0.218 HD
ENDBRANCH  28  32
BRANCH  29  34
HETATM   34  O   UNK N   1     -23.469  26.463 -13.429  0.00  0.00    -0.356 OA
HETATM   35  H   UNK N   1     -23.813  27.320 -13.140  0.00  0.00     0.218 HD
ENDBRANCH  29  34
BRANCH  30  36
HETATM   36  O   UNK N   1     -23.870  23.920 -12.518  0.00  0.00    -0.358 OA
HETATM   37  H   UNK N   1     -24.325  23.432 -11.816  0.00  0.00     0.218 HD
ENDBRANCH  30  36
ENDBRANCH   3  26
BRANCH   7  38
HETATM   38  O   UNK N   1     -16.047  20.247  -9.026  0.00  0.00    -0.360 OA
HETATM   39  H   UNK N   1     -15.179  20.609  -8.793  0.00  0.00     0.217 HD
ENDBRANCH   7  38
BRANCH  10  40
HETATM   40  O   UNK N   1     -19.280  20.573  -5.548  0.00  0.00    -0.361 OA
HETATM   41  H   UNK N   1     -18.693  20.137  -4.913  0.00  0.00     0.217 HD
ENDBRANCH  10  40
TORSDOF 12
ENDMDL
MODEL 5
REMARK VINA RESULT:      -7.9     31.944     33.960
REMARK  12 active torsions:
REMARK  status: ('A' for Active; 'I' for Inactive)
REMARK    1  A    between atoms: O_2  and  C_12 
REMARK    2  A    between atoms: O_2  and  C_24 
REMARK    3  A    between atoms: O_3  and  C_18 
REMARK    4  A    between atoms: O_4  and  C_23 
REMARK    5  A    between atoms: O_5  and  C_25 
REMARK    6  A    between atoms: O_6  and  C_26 
REMARK    7  A    between atoms: O_8  and  C_27 
REMARK    8  A    between atoms: O_9  and  C_31 
REMARK    9  A    between atoms: O_10  and  C_32 
REMARK   10  A    between atoms: O_11  and  C_33 
REMARK   11  A    between atoms: C_13  and  C_16 
REMARK   12  A    between atoms: C_24  and  C_28 
ROOT
HETATM    1  O   UNK N   1     -38.829   0.228  -4.075  0.00  0.00    -0.338 OA
HETATM    2  C   UNK N   1     -40.202  -1.693  -3.727  0.00  0.00     0.170 C 
HETATM    3  C   UNK N   1     -38.786  -1.088  -3.637  0.00  0.00     0.192 C 
HETATM    4  C   UNK N   1     -41.136  -0.860  -2.816  0.00  0.00     0.080 C 
HETATM    5  C   UNK N   1     -40.959   0.618  -3.036  0.00  0.00     0.011 A 
HETATM    6  C   UNK N   1     -39.797   1.094  -3.677  0.00  0.00     0.081 A 
HETATM    7  C   UNK N   1     -41.943   1.524  -2.601  0.00  0.00     0.077 A 
HETATM    8  C   UNK N   1     -39.638   2.465  -3.898  0.00  0.00     0.074 A 
HETATM    9  C   UNK N   1     -41.772   2.896  -2.826  0.00  0.00     0.073 A 
HETATM   10  C   UNK N   1     -40.624   3.367  -3.474  0.00  0.00     0.071 A 
ENDROOT
BRANCH   2  11
HETATM   11  O   UNK N   1     -40.172  -3.025  -3.347  0.00  0.00    -0.309 OA
BRANCH  11  12
HETATM   12  C   UNK N   1     -40.658  -4.068  -4.077  0.00  0.00     0.294 C 
HETATM   13  O   UNK N   1     -41.798  -4.475  -3.910  0.00  0.00    -0.259 OA
BRANCH  12  14
HETATM   14  C   UNK N   1     -39.761  -4.773  -5.009  0.00  0.00     0.045 A 
HETATM   15  C   UNK N   1     -39.720  -4.401  -6.360  0.00  0.00     0.057 A 
HETATM   16  C   UNK N   1     -38.902  -5.096  -7.261  0.00  0.00     0.102 A 
HETATM   17  C   UNK N   1     -38.091  -6.149  -6.799  0.00  0.00     0.132 A 
HETATM   18  C   UNK N   1     -38.116  -6.509  -5.443  0.00  0.00     0.102 A 
HETATM   19  C   UNK N   1     -38.963  -5.831  -4.556  0.00  0.00     0.057 A 
BRANCH  16  20
HETATM   20  O   UNK N   1     -38.901  -4.760  -8.568  0.00  0.00    -0.358 OA
HETATM   21  H   UNK N   1     -39.684  -4.881  -9.125  0.00  0.00     0.218 HD
ENDBRANCH  16  20
BRANCH  17  22
HETATM   22  O   UNK N   1     -37.287  -6.826  -7.648  0.00  0.00    -0.356 OA
HETATM   23  H   UNK N   1     -37.617  -7.212  -8.472  0.00  0.00     0.218 HD
ENDBRANCH  17  22
BRANCH  18  24
HETATM   24  O   UNK N   1     -37.325  -7.508  -5.000  0.00  0.00    -0.358 OA
HETATM   25  H   UNK N   1     -37.672  -8.225  -4.449  0.00  0.00     0.218 HD
ENDBRANCH  18  24
ENDBRANCH  12  14
ENDBRANCH  11  12
ENDBRANCH   2  11
BRANCH   3  26
HETATM   26  C   UNK N   1     -37.762  -1.854  -4.445  0.00  0.00    -0.021 A 
HETATM   27  C   UNK N   1     -36.946  -2.816  -3.823  0.00  0.00     0.049 A 
HETATM   28  C   UNK N   1     -35.989  -3.524  -4.566  0.00  0.00     0.102 A 
HETATM   29  C   UNK N   1     -35.848  -3.277  -5.943  0.00  0.00     0.132 A 
HETATM   30  C   UNK N   1     -36.661  -2.320  -6.566  0.00  0.00     0.102 A 
HETATM   31  C   UNK N   1     -37.610  -1.610  -5.817  0.00  0.00     0.049 A 
BRANCH  28  32
HETATM   32  O   UNK N   1     -35.203  -4.441  -3.961  0.00  0.00    -0.358 OA
HETATM   33  H   UNK N   1     -35.390  -5.390  -4.014  0.00  0.00     0.218 HD
ENDBRANCH  28  32
BRANCH  29  34
HETATM   34  O   UNK N   1     -34.935  -3.948  -6.679  0.00  0.00    -0.356 OA
HETATM   35  H   UNK N   1     -34.763  -4.892  -6.557  0.00  0.00     0.218 HD
ENDBRANCH  29  34
BRANCH  30  36
HETATM   36  O   UNK N   1     -36.526  -2.087  -7.888  0.00  0.00    -0.358 OA
HETATM   37  H   UNK N   1     -35.812  -2.487  -8.405  0.00  0.00     0.218 HD
ENDBRANCH  30  36
ENDBRANCH   3  26
BRANCH   7  38
HETATM   38  O   UNK N   1     -43.055   1.067  -1.984  0.00  0.00    -0.360 OA
HETATM   39  H   UNK N   1     -43.095   0.186  -1.586  0.00  0.00     0.217 HD
ENDBRANCH   7  38
BRANCH  10  40
HETATM   40  O   UNK N   1     -40.478   4.692  -3.681  0.00  0.00    -0.361 OA
HETATM   41  H   UNK N   1     -40.215   5.291  -2.968  0.00  0.00     0.217 HD
ENDBRANCH  10  40
TORSDOF 12
ENDMDL
MODEL 6
REMARK VINA RESULT:      -7.8      6.723     10.636
REMARK  12 active torsions:
REMARK  status: ('A' for Active; 'I' for Inactive)
REMARK    1  A    between atoms: O_2  and  C_12 
REMARK    2  A    between atoms: O_2  and  C_24 
REMARK    3  A    between atoms: O_3  and  C_18 
REMARK    4  A    between atoms: O_4  and  C_23 
REMARK    5  A    between atoms: O_5  and  C_25 
REMARK    6  A    between atoms: O_6  and  C_26 
REMARK    7  A    between atoms: O_8  and  C_27 
REMARK    8  A    between atoms: O_9  and  C_31 
REMARK    9  A    between atoms: O_10  and  C_32 
REMARK   10  A    between atoms: O_11  and  C_33 
REMARK   11  A    between atoms: C_13  and  C_16 
REMARK   12  A    between atoms: C_24  and  C_28 
ROOT
HETATM    1  O   UNK N   1     -24.367  32.088 -18.009  0.00  0.00    -0.338 OA
HETATM    2  C   UNK N   1     -26.712  31.648 -17.930  0.00  0.00     0.170 C 
HETATM    3  C   UNK N   1     -25.359  31.563 -17.193  0.00  0.00     0.192 C 
HETATM    4  C   UNK N   1     -27.001  33.140 -18.225  0.00  0.00     0.080 C 
HETATM    5  C   UNK N   1     -25.804  33.836 -18.816  0.00  0.00     0.011 A 
HETATM    6  C   UNK N   1     -24.526  33.256 -18.684  0.00  0.00     0.081 A 
HETATM    7  C   UNK N   1     -25.955  35.060 -19.490  0.00  0.00     0.077 A 
HETATM    8  C   UNK N   1     -23.415  33.891 -19.247  0.00  0.00     0.074 A 
HETATM    9  C   UNK N   1     -24.834  35.688 -20.048  0.00  0.00     0.073 A 
HETATM   10  C   UNK N   1     -23.567  35.106 -19.929  0.00  0.00     0.071 A 
ENDROOT
BRANCH   2  11
HETATM   11  O   UNK N   1     -27.709  31.078 -17.155  0.00  0.00    -0.309 OA
BRANCH  11  12
HETATM   12  C   UNK N   1     -28.613  30.153 -17.584  0.00  0.00     0.294 C 
HETATM   13  O   UNK N   1     -29.721  30.491 -17.972  0.00  0.00    -0.259 OA
BRANCH  12  14
HETATM   14  C   UNK N   1     -28.281  28.722 -17.482  0.00  0.00     0.045 A 
HETATM   15  C   UNK N   1     -28.084  27.963 -18.644  0.00  0.00     0.057 A 
HETATM   16  C   UNK N   1     -27.811  26.592 -18.557  0.00  0.00     0.102 A 
HETATM   17  C   UNK N   1     -27.700  25.981 -17.294  0.00  0.00     0.132 A 
HETATM   18  C   UNK N   1     -27.877  26.743 -16.129  0.00  0.00     0.102 A 
HETATM   19  C   UNK N   1     -28.184  28.108 -16.227  0.00  0.00     0.057 A 
BRANCH  16  20
HETATM   20  O   UNK N   1     -27.665  25.860 -19.681  0.00  0.00    -0.358 OA
HETATM   21  H   UNK N   1     -27.283  26.237 -20.488  0.00  0.00     0.218 HD
ENDBRANCH  16  20
BRANCH  17  22
HETATM   22  O   UNK N   1     -27.427  24.662 -17.186  0.00  0.00    -0.356 OA
HETATM   23  H   UNK N   1     -27.112  24.138 -17.935  0.00  0.00     0.218 HD
ENDBRANCH  17  22
BRANCH  18  24
HETATM   24  O   UNK N   1     -27.753  26.159 -14.920  0.00  0.00    -0.358 OA
HETATM   25  H   UNK N   1     -28.523  25.833 -14.431  0.00  0.00     0.218 HD
ENDBRANCH  18  24
ENDBRANCH  12  14
ENDBRANCH  11  12
ENDBRANCH   2  11
BRANCH   3  26
HETATM   26  C   UNK N   1     -24.989  30.151 -16.796  0.00  0.00    -0.021 A 
HETATM   27  C   UNK N   1     -24.720  29.186 -17.782  0.00  0.00     0.049 A 
HETATM   28  C   UNK N   1     -24.385  27.872 -17.419  0.00  0.00     0.102 A 
HETATM   29  C   UNK N   1     -24.309  27.519 -16.059  0.00  0.00     0.132 A 
HETATM   30  C   UNK N   1     -24.574  28.480 -15.074  0.00  0.00     0.102 A 
HETATM   31  C   UNK N   1     -24.917  29.788 -15.443  0.00  0.00     0.049 A 
BRANCH  28  32
HETATM   32  O   UNK N   1     -24.137  26.947 -18.371  0.00  0.00    -0.358 OA
HETATM   33  H   UNK N   1     -24.241  25.999 -18.203  0.00  0.00     0.218 HD
ENDBRANCH  28  32
BRANCH  29  34
HETATM   34  O   UNK N   1     -23.986  26.261 -15.686  0.00  0.00    -0.356 OA
HETATM   35  H   UNK N   1     -24.284  25.482 -16.177  0.00  0.00     0.218 HD
ENDBRANCH  29  34
BRANCH  30  36
HETATM   36  O   UNK N   1     -24.497  28.140 -13.771  0.00  0.00    -0.358 OA
HETATM   37  H   UNK N   1     -25.288  27.944 -13.248  0.00  0.00     0.218 HD
ENDBRANCH  30  36
ENDBRANCH   3  26
BRANCH   7  38
HETATM   38  O   UNK N   1     -27.180  35.615 -19.614  0.00  0.00    -0.360 OA
HETATM   39  H   UNK N   1     -27.874  35.480 -18.953  0.00  0.00     0.217 HD
ENDBRANCH   7  38
BRANCH  10  40
HETATM   40  O   UNK N   1     -22.500  35.727 -20.472  0.00  0.00    -0.361 OA
HETATM   41  H   UNK N   1     -21.700  35.905 -19.957  0.00  0.00     0.217 HD
ENDBRANCH  10  40
TORSDOF 12
ENDMDL
MODEL 7
REMARK VINA RESULT:      -7.8      2.087      7.931
REMARK  12 active torsions:
REMARK  status: ('A' for Active; 'I' for Inactive)
REMARK    1  A    between atoms: O_2  and  C_12 
REMARK    2  A    between atoms: O_2  and  C_24 
REMARK    3  A    between atoms: O_3  and  C_18 
REMARK    4  A    between atoms: O_4  and  C_23 
REMARK    5  A    between atoms: O_5  and  C_25 
REMARK    6  A    between atoms: O_6  and  C_26 
REMARK    7  A    between atoms: O_8  and  C_27 
REMARK    8  A    between atoms: O_9  and  C_31 
REMARK    9  A    between atoms: O_10  and  C_32 
REMARK   10  A    between atoms: O_11  and  C_33 
REMARK   11  A    between atoms: C_13  and  C_16 
REMARK   12  A    between atoms: C_24  and  C_28 
ROOT
HETATM    1  O   UNK N   1     -20.356  24.616 -13.305  0.00  0.00    -0.338 OA
HETATM    2  C   UNK N   1     -20.310  25.154 -15.630  0.00  0.00     0.170 C 
HETATM    3  C   UNK N   1     -20.382  25.688 -14.185  0.00  0.00     0.192 C 
HETATM    4  C   UNK N   1     -18.984  24.371 -15.784  0.00  0.00     0.080 C 
HETATM    5  C   UNK N   1     -18.760  23.417 -14.642  0.00  0.00     0.011 A 
HETATM    6  C   UNK N   1     -19.481  23.585 -13.442  0.00  0.00     0.081 A 
HETATM    7  C   UNK N   1     -17.835  22.366 -14.765  0.00  0.00     0.077 A 
HETATM    8  C   UNK N   1     -19.289  22.691 -12.386  0.00  0.00     0.074 A 
HETATM    9  C   UNK N   1     -17.650  21.477 -13.698  0.00  0.00     0.073 A 
HETATM   10  C   UNK N   1     -18.374  21.636 -12.512  0.00  0.00     0.071 A 
ENDROOT
BRANCH   2  11
HETATM   11  O   UNK N   1     -20.391  26.205 -16.529  0.00  0.00    -0.309 OA
BRANCH  11  12
HETATM   12  C   UNK N   1     -21.128  26.214 -17.674  0.00  0.00     0.294 C 
HETATM   13  O   UNK N   1     -20.686  26.703 -18.703  0.00  0.00    -0.259 OA
BRANCH  12  14
HETATM   14  C   UNK N   1     -22.514  25.715 -17.640  0.00  0.00     0.045 A 
HETATM   15  C   UNK N   1     -23.576  26.606 -17.432  0.00  0.00     0.057 A 
HETATM   16  C   UNK N   1     -24.892  26.134 -17.355  0.00  0.00     0.102 A 
HETATM   17  C   UNK N   1     -25.153  24.762 -17.522  0.00  0.00     0.132 A 
HETATM   18  C   UNK N   1     -24.093  23.870 -17.750  0.00  0.00     0.102 A 
HETATM   19  C   UNK N   1     -22.776  24.347 -17.791  0.00  0.00     0.057 A 
BRANCH  16  20
HETATM   20  O   UNK N   1     -25.904  26.993 -17.112  0.00  0.00    -0.358 OA
HETATM   21  H   UNK N   1     -26.494  27.296 -17.817  0.00  0.00     0.218 HD
ENDBRANCH  16  20
BRANCH  17  22
HETATM   22  O   UNK N   1     -26.416  24.285 -17.461  0.00  0.00    -0.356 OA
HETATM   23  H   UNK N   1     -27.171  24.852 -17.252  0.00  0.00     0.218 HD
ENDBRANCH  17  22
BRANCH  18  24
HETATM   24  O   UNK N   1     -24.347  22.557 -17.926  0.00  0.00    -0.358 OA
HETATM   25  H   UNK N   1     -25.252  22.213 -17.955  0.00  0.00     0.218 HD
ENDBRANCH  18  24
ENDBRANCH  12  14
ENDBRANCH  11  12
ENDBRANCH   2  11
BRANCH   3  26
HETATM   26  C   UNK N   1     -21.615  26.525 -13.924  0.00  0.00    -0.021 A 
HETATM   27  C   UNK N   1     -21.491  27.897 -13.642  0.00  0.00     0.049 A 
HETATM   28  C   UNK N   1     -22.631  28.677 -13.391  0.00  0.00     0.102 A 
HETATM   29  C   UNK N   1     -23.906  28.084 -13.428  0.00  0.00     0.132 A 
HETATM   30  C   UNK N   1     -24.032  26.717 -13.711  0.00  0.00     0.102 A 
HETATM   31  C   UNK N   1     -22.890  25.942 -13.952  0.00  0.00     0.049 A 
BRANCH  28  32
HETATM   32  O   UNK N   1     -22.506  29.992 -13.112  0.00  0.00    -0.358 OA
HETATM   33  H   UNK N   1     -21.689  30.361 -12.744  0.00  0.00     0.218 HD
ENDBRANCH  28  32
BRANCH  29  34
HETATM   34  O   UNK N   1     -25.018  28.816 -13.191  0.00  0.00    -0.356 OA
HETATM   35  H   UNK N   1     -25.528  29.228 -13.902  0.00  0.00     0.218 HD
ENDBRANCH  29  34
BRANCH  30  36
HETATM   36  O   UNK N   1     -25.257  26.153 -13.749  0.00  0.00    -0.358 OA
HETATM   37  H   UNK N   1     -25.432  25.288 -13.350  0.00  0.00     0.218 HD
ENDBRANCH  30  36
ENDBRANCH   3  26
BRANCH   7  38
HETATM   38  O   UNK N   1     -17.143  22.206 -15.914  0.00  0.00    -0.360 OA
HETATM   39  H   UNK N   1     -16.780  21.349 -16.179  0.00  0.00     0.217 HD
ENDBRANCH   7  38
BRANCH  10  40
HETATM   40  O   UNK N   1     -18.181  20.770 -11.496  0.00  0.00    -0.361 OA
HETATM   41  H   UNK N   1     -17.655  21.008 -10.719  0.00  0.00     0.217 HD
ENDBRANCH  10  40
TORSDOF 12
ENDMDL
MODEL 8
REMARK VINA RESULT:      -7.8      2.110      7.904
REMARK  12 active torsions:
REMARK  status: ('A' for Active; 'I' for Inactive)
REMARK    1  A    between atoms: O_2  and  C_12 
REMARK    2  A    between atoms: O_2  and  C_24 
REMARK    3  A    between atoms: O_3  and  C_18 
REMARK    4  A    between atoms: O_4  and  C_23 
REMARK    5  A    between atoms: O_5  and  C_25 
REMARK    6  A    between atoms: O_6  and  C_26 
REMARK    7  A    between atoms: O_8  and  C_27 
REMARK    8  A    between atoms: O_9  and  C_31 
REMARK    9  A    between atoms: O_10  and  C_32 
REMARK   10  A    between atoms: O_11  and  C_33 
REMARK   11  A    between atoms: C_13  and  C_16 
REMARK   12  A    between atoms: C_24  and  C_28 
ROOT
HETATM    1  O   UNK N   1     -20.312  24.569 -13.401  0.00  0.00    -0.338 OA
HETATM    2  C   UNK N   1     -20.216  25.054 -15.736  0.00  0.00     0.170 C 
HETATM    3  C   UNK N   1     -20.313  25.622 -14.305  0.00  0.00     0.192 C 
HETATM    4  C   UNK N   1     -18.892  24.260 -15.846  0.00  0.00     0.080 C 
HETATM    5  C   UNK N   1     -18.697  23.331 -14.679  0.00  0.00     0.011 A 
HETATM    6  C   UNK N   1     -19.441  23.530 -13.498  0.00  0.00     0.081 A 
HETATM    7  C   UNK N   1     -17.777  22.272 -14.759  0.00  0.00     0.077 A 
HETATM    8  C   UNK N   1     -19.276  22.658 -12.418  0.00  0.00     0.074 A 
HETATM    9  C   UNK N   1     -17.618  21.405 -13.670  0.00  0.00     0.073 A 
HETATM   10  C   UNK N   1     -18.365  21.595 -12.502  0.00  0.00     0.071 A 
ENDROOT
BRANCH   2  11
HETATM   11  O   UNK N   1     -20.272  26.086 -16.659  0.00  0.00    -0.309 OA
BRANCH  11  12
HETATM   12  C   UNK N   1     -20.985  26.073 -17.819  0.00  0.00     0.294 C 
HETATM   13  O   UNK N   1     -20.498  26.485 -18.861  0.00  0.00    -0.259 OA
BRANCH  12  14
HETATM   14  C   UNK N   1     -22.396  25.649 -17.791  0.00  0.00     0.045 A 
HETATM   15  C   UNK N   1     -22.718  24.284 -17.788  0.00  0.00     0.057 A 
HETATM   16  C   UNK N   1     -24.056  23.873 -17.806  0.00  0.00     0.102 A 
HETATM   17  C   UNK N   1     -25.083  24.834 -17.789  0.00  0.00     0.132 A 
HETATM   18  C   UNK N   1     -24.763  26.201 -17.772  0.00  0.00     0.102 A 
HETATM   19  C   UNK N   1     -23.420  26.603 -17.789  0.00  0.00     0.057 A 
BRANCH  16  20
HETATM   20  O   UNK N   1     -24.358  22.558 -17.847  0.00  0.00    -0.358 OA
HETATM   21  H   UNK N   1     -24.406  22.022 -17.041  0.00  0.00     0.218 HD
ENDBRANCH  16  20
BRANCH  17  22
HETATM   22  O   UNK N   1     -26.382  24.461 -17.796  0.00  0.00    -0.356 OA
HETATM   23  H   UNK N   1     -26.659  23.559 -17.579  0.00  0.00     0.218 HD
ENDBRANCH  17  22
BRANCH  18  24
HETATM   24  O   UNK N   1     -25.749  27.121 -17.739  0.00  0.00    -0.358 OA
HETATM   25  H   UNK N   1     -25.742  27.894 -18.322  0.00  0.00     0.218 HD
ENDBRANCH  18  24
ENDBRANCH  12  14
ENDBRANCH  11  12
ENDBRANCH   2  11
BRANCH   3  26
HETATM   26  C   UNK N   1     -21.545  26.471 -14.087  0.00  0.00    -0.021 A 
HETATM   27  C   UNK N   1     -22.826  25.912 -14.240  0.00  0.00     0.049 A 
HETATM   28  C   UNK N   1     -23.973  26.698 -14.047  0.00  0.00     0.102 A 
HETATM   29  C   UNK N   1     -23.842  28.052 -13.690  0.00  0.00     0.132 A 
HETATM   30  C   UNK N   1     -22.566  28.611 -13.534  0.00  0.00     0.102 A 
HETATM   31  C   UNK N   1     -21.424  27.824 -13.737  0.00  0.00     0.049 A 
BRANCH  28  32
HETATM   32  O   UNK N   1     -25.200  26.158 -14.205  0.00  0.00    -0.358 OA
HETATM   33  H   UNK N   1     -25.342  25.354 -14.727  0.00  0.00     0.218 HD
ENDBRANCH  28  32
BRANCH  29  34
HETATM   34  O   UNK N   1     -24.931  28.828 -13.497  0.00  0.00    -0.356 OA
HETATM   35  H   UNK N   1     -25.109  29.615 -14.031  0.00  0.00     0.218 HD
ENDBRANCH  29  34
BRANCH  30  36
HETATM   36  O   UNK N   1     -22.443  29.910 -13.188  0.00  0.00    -0.358 OA
HETATM   37  H   UNK N   1     -23.208  30.440 -12.922  0.00  0.00     0.218 HD
ENDBRANCH  30  36
ENDBRANCH   3  26
BRANCH   7  38
HETATM   38  O   UNK N   1     -17.063  22.082 -15.891  0.00  0.00    -0.360 OA
HETATM   39  H   UNK N   1     -16.723  21.212 -16.143  0.00  0.00     0.217 HD
ENDBRANCH   7  38
BRANCH  10  40
HETATM   40  O   UNK N   1     -18.198  20.751 -11.464  0.00  0.00    -0.361 OA
HETATM   41  H   UNK N   1     -18.951  20.395 -10.972  0.00  0.00     0.217 HD
ENDBRANCH  10  40
TORSDOF 12
ENDMDL
MODEL 9
REMARK VINA RESULT:      -7.7      2.157      7.041
REMARK  12 active torsions:
REMARK  status: ('A' for Active; 'I' for Inactive)
REMARK    1  A    between atoms: O_2  and  C_12 
REMARK    2  A    between atoms: O_2  and  C_24 
REMARK    3  A    between atoms: O_3  and  C_18 
REMARK    4  A    between atoms: O_4  and  C_23 
REMARK    5  A    between atoms: O_5  and  C_25 
REMARK    6  A    between atoms: O_6  and  C_26 
REMARK    7  A    between atoms: O_8  and  C_27 
REMARK    8  A    between atoms: O_9  and  C_31 
REMARK    9  A    between atoms: O_10  and  C_32 
REMARK   10  A    between atoms: O_11  and  C_33 
REMARK   11  A    between atoms: C_13  and  C_16 
REMARK   12  A    between atoms: C_24  and  C_28 
ROOT
HETATM    1  O   UNK N   1     -17.972  22.253 -12.547  0.00  0.00    -0.338 OA
HETATM    2  C   UNK N   1     -19.479  24.015 -11.978  0.00  0.00     0.170 C 
HETATM    3  C   UNK N   1     -19.105  22.917 -12.995  0.00  0.00     0.192 C 
HETATM    4  C   UNK N   1     -19.767  23.329 -10.620  0.00  0.00     0.080 C 
HETATM    5  C   UNK N   1     -18.698  22.333 -10.258  0.00  0.00     0.011 A 
HETATM    6  C   UNK N   1     -17.832  21.846 -11.258  0.00  0.00     0.081 A 
HETATM    7  C   UNK N   1     -18.565  21.884  -8.933  0.00  0.00     0.077 A 
HETATM    8  C   UNK N   1     -16.827  20.934 -10.923  0.00  0.00     0.074 A 
HETATM    9  C   UNK N   1     -17.556  20.968  -8.608  0.00  0.00     0.073 A 
HETATM   10  C   UNK N   1     -16.687  20.494  -9.598  0.00  0.00     0.071 A 
ENDROOT
BRANCH   2  11
HETATM   11  O   UNK N   1     -20.576  24.728 -12.433  0.00  0.00    -0.309 OA
BRANCH  11  12
HETATM   12  C   UNK N   1     -20.822  26.045 -12.186  0.00  0.00     0.294 C 
HETATM   13  O   UNK N   1     -20.558  26.541 -11.101  0.00  0.00    -0.259 OA
BRANCH  12  14
HETATM   14  C   UNK N   1     -21.506  26.853 -13.211  0.00  0.00     0.045 A 
HETATM   15  C   UNK N   1     -21.817  28.195 -12.953  0.00  0.00     0.057 A 
HETATM   16  C   UNK N   1     -22.507  28.957 -13.905  0.00  0.00     0.102 A 
HETATM   17  C   UNK N   1     -22.856  28.382 -15.141  0.00  0.00     0.132 A 
HETATM   18  C   UNK N   1     -22.527  27.045 -15.408  0.00  0.00     0.102 A 
HETATM   19  C   UNK N   1     -21.868  26.279 -14.436  0.00  0.00     0.057 A 
BRANCH  16  20
HETATM   20  O   UNK N   1     -22.841  30.236 -13.632  0.00  0.00    -0.358 OA
HETATM   21  H   UNK N   1     -22.238  30.971 -13.820  0.00  0.00     0.218 HD
ENDBRANCH  16  20
BRANCH  17  22
HETATM   22  O   UNK N   1     -23.512  29.101 -16.078  0.00  0.00    -0.356 OA
HETATM   23  H   UNK N   1     -23.109  29.863 -16.518  0.00  0.00     0.218 HD
ENDBRANCH  17  22
BRANCH  18  24
HETATM   24  O   UNK N   1     -22.848  26.500 -16.600  0.00  0.00    -0.358 OA
HETATM   25  H   UNK N   1     -22.516  26.866 -17.433  0.00  0.00     0.218 HD
ENDBRANCH  18  24
ENDBRANCH  12  14
ENDBRANCH  11  12
ENDBRANCH   2  11
BRANCH   3  26
HETATM   26  C   UNK N   1     -18.855  23.458 -14.385  0.00  0.00    -0.021 A 
HETATM   27  C   UNK N   1     -19.935  23.726 -15.245  0.00  0.00     0.049 A 
HETATM   28  C   UNK N   1     -19.708  24.220 -16.539  0.00  0.00     0.102 A 
HETATM   29  C   UNK N   1     -18.393  24.458 -16.977  0.00  0.00     0.132 A 
HETATM   30  C   UNK N   1     -17.315  24.195 -16.121  0.00  0.00     0.102 A 
HETATM   31  C   UNK N   1     -17.547  23.693 -14.833  0.00  0.00     0.049 A 
BRANCH  28  32
HETATM   32  O   UNK N   1     -20.749  24.466 -17.363  0.00  0.00    -0.358 OA
HETATM   33  H   UNK N   1     -21.407  23.787 -17.573  0.00  0.00     0.218 HD
ENDBRANCH  28  32
BRANCH  29  34
HETATM   34  O   UNK N   1     -18.150  24.936 -18.217  0.00  0.00    -0.356 OA
HETATM   35  H   UNK N   1     -18.861  25.175 -18.829  0.00  0.00     0.218 HD
ENDBRANCH  29  34
BRANCH  30  36
HETATM   36  O   UNK N   1     -16.054  24.427 -16.543  0.00  0.00    -0.358 OA
HETATM   37  H   UNK N   1     -15.323  23.837 -16.310  0.00  0.00     0.218 HD
ENDBRANCH  30  36
ENDBRANCH   3  26
BRANCH   7  38
HETATM   38  O   UNK N   1     -19.397  22.350  -7.976  0.00  0.00    -0.360 OA
HETATM   39  H   UNK N   1     -19.102  22.977  -7.300  0.00  0.00     0.217 HD
ENDBRANCH   7  38
BRANCH  10  40
HETATM   40  O   UNK N   1     -15.723  19.612  -9.266  0.00  0.00    -0.361 OA
HETATM   41  H   UNK N   1     -15.933  18.757  -8.865  0.00  0.00     0.217 HD
ENDBRANCH  10  40
TORSDOF 12
ENDMDL
