MODEL 1
REMARK VINA RESULT:      -7.9      0.000      0.000
REMARK  4 active torsions:
REMARK  status: ('A' for Active; 'I' for Inactive)
REMARK    1  A    between atoms: O_2  and  C_11 
REMARK    2  A    between atoms: O_4  and  C_15 
REMARK    3  A    between atoms: O_5  and  C_20 
REMARK    4  A    between atoms: C_7  and  C_10 
ROOT
HETATM    1  O   UNK N   1     -18.788  23.138 -10.012  0.00  0.00    -0.321 OA
HETATM    2  O   UNK N   1     -16.836  20.021 -11.510  0.00  0.00    -0.286 OA
HETATM    3  C   UNK N   1     -18.063  21.927 -11.948  0.00  0.00     0.082 A 
HETATM    4  C   UNK N   1     -17.511  21.173  -9.693  0.00  0.00     0.048 A 
HETATM    5  C   UNK N   1     -18.746  23.016 -11.338  0.00  0.00     0.094 A 
HETATM    6  C   UNK N   1     -17.437  20.986 -11.081  0.00  0.00     0.200 A 
HETATM    7  C   UNK N   1     -18.044  21.852 -13.381  0.00  0.00     0.085 A 
HETATM    8  C   UNK N   1     -18.205  22.273  -9.192  0.00  0.00     0.159 A 
HETATM    9  C   UNK N   1     -19.383  23.985 -12.121  0.00  0.00     0.074 A 
HETATM   10  C   UNK N   1     -18.693  22.840 -14.129  0.00  0.00     0.074 A 
HETATM   11  C   UNK N   1     -19.357  23.899 -13.512  0.00  0.00     0.071 A 
ENDROOT
BRANCH   4  12
HETATM   12  C   UNK N   1     -16.859  20.231  -8.759  0.00  0.00    -0.020 A 
HETATM   13  C   UNK N   1     -17.328  20.104  -7.444  0.00  0.00     0.015 A 
HETATM   14  C   UNK N   1     -16.706  19.219  -6.561  0.00  0.00     0.037 A 
HETATM   15  C   UNK N   1     -15.610  18.452  -6.983  0.00  0.00     0.065 A 
HETATM   16  C   UNK N   1     -15.142  18.575  -8.298  0.00  0.00     0.037 A 
HETATM   17  C   UNK N   1     -15.765  19.461  -9.185  0.00  0.00     0.015 A 
BRANCH  15  18
HETATM   18  O   UNK N   1     -15.005  17.599  -6.132  0.00  0.00    -0.361 OA
HETATM   19  H   UNK N   1     -15.302  17.507  -5.215  0.00  0.00     0.217 HD
ENDBRANCH  15  18
ENDBRANCH   4  12
BRANCH   7  20
HETATM   20  O   UNK N   1     -17.426  20.873 -14.080  0.00  0.00    -0.360 OA
HETATM   21  H   UNK N   1     -16.676  20.350 -13.790  0.00  0.00     0.217 HD
ENDBRANCH   7  20
BRANCH  11  22
HETATM   22  O   UNK N   1     -19.972  24.842 -14.255  0.00  0.00    -0.361 OA
HETATM   23  H   UNK N   1     -20.237  25.693 -13.873  0.00  0.00     0.217 HD
ENDBRANCH  11  22
TORSDOF 4
ENDMDL
MODEL 2
REMARK VINA RESULT:      -7.7      1.663      6.906
REMARK  4 active torsions:
REMARK  status: ('A' for Active; 'I' for Inactive)
REMARK    1  A    between atoms: O_2  and  C_11 
REMARK    2  A    between atoms: O_4  and  C_15 
REMARK    3  A    between atoms: O_5  and  C_20 
REMARK    4  A    between atoms: C_7  and  C_10 
ROOT
HETATM    1  O   UNK N   1     -17.903  21.003  -6.748  0.00  0.00    -0.321 OA
HETATM    2  O   UNK N   1     -15.746  19.661  -9.800  0.00  0.00    -0.286 OA
HETATM    3  C   UNK N   1     -16.140  19.580  -7.528  0.00  0.00     0.082 A 
HETATM    4  C   UNK N   1     -17.413  20.987  -9.062  0.00  0.00     0.048 A 
HETATM    5  C   UNK N   1     -16.952  20.109  -6.485  0.00  0.00     0.094 A 
HETATM    6  C   UNK N   1     -16.392  20.050  -8.848  0.00  0.00     0.200 A 
HETATM    7  C   UNK N   1     -15.136  18.613  -7.185  0.00  0.00     0.085 A 
HETATM    8  C   UNK N   1     -18.153  21.446  -7.974  0.00  0.00     0.159 A 
HETATM    9  C   UNK N   1     -16.769  19.694  -5.161  0.00  0.00     0.074 A 
HETATM   10  C   UNK N   1     -14.984  18.224  -5.850  0.00  0.00     0.074 A 
HETATM   11  C   UNK N   1     -15.790  18.755  -4.843  0.00  0.00     0.071 A 
ENDROOT
BRANCH   4  12
HETATM   12  C   UNK N   1     -17.719  21.486 -10.419  0.00  0.00    -0.020 A 
HETATM   13  C   UNK N   1     -18.006  22.844 -10.623  0.00  0.00     0.015 A 
HETATM   14  C   UNK N   1     -18.303  23.313 -11.905  0.00  0.00     0.037 A 
HETATM   15  C   UNK N   1     -18.316  22.430 -12.995  0.00  0.00     0.065 A 
HETATM   16  C   UNK N   1     -18.026  21.075 -12.794  0.00  0.00     0.037 A 
HETATM   17  C   UNK N   1     -17.727  20.603 -11.510  0.00  0.00     0.015 A 
BRANCH  15  18
HETATM   18  O   UNK N   1     -18.605  22.878 -14.233  0.00  0.00    -0.361 OA
HETATM   19  H   UNK N   1     -18.845  22.269 -14.946  0.00  0.00     0.217 HD
ENDBRANCH  15  18
ENDBRANCH   4  12
BRANCH   7  20
HETATM   20  O   UNK N   1     -14.307  18.032  -8.082  0.00  0.00    -0.360 OA
HETATM   21  H   UNK N   1     -14.460  17.211  -8.553  0.00  0.00     0.217 HD
ENDBRANCH   7  20
BRANCH  11  22
HETATM   22  O   UNK N   1     -15.627  18.361  -3.563  0.00  0.00    -0.361 OA
HETATM   23  H   UNK N   1     -14.974  17.687  -3.322  0.00  0.00     0.217 HD
ENDBRANCH  11  22
TORSDOF 4
ENDMDL
MODEL 3
REMARK VINA RESULT:      -7.6      1.374      7.129
REMARK  4 active torsions:
REMARK  status: ('A' for Active; 'I' for Inactive)
REMARK    1  A    between atoms: O_2  and  C_11 
REMARK    2  A    between atoms: O_4  and  C_15 
REMARK    3  A    between atoms: O_5  and  C_20 
REMARK    4  A    between atoms: C_7  and  C_10 
ROOT
HETATM    1  O   UNK N   1     -15.897  19.559  -9.991  0.00  0.00    -0.321 OA
HETATM    2  O   UNK N   1     -18.514  22.058  -8.356  0.00  0.00    -0.286 OA
HETATM    3  C   UNK N   1     -16.987  20.362  -8.014  0.00  0.00     0.082 A 
HETATM    4  C   UNK N   1     -17.475  21.307 -10.211  0.00  0.00     0.048 A 
HETATM    5  C   UNK N   1     -16.068  19.496  -8.672  0.00  0.00     0.094 A 
HETATM    6  C   UNK N   1     -17.704  21.284  -8.828  0.00  0.00     0.200 A 
HETATM    7  C   UNK N   1     -17.123  20.253  -6.590  0.00  0.00     0.085 A 
HETATM    8  C   UNK N   1     -16.554  20.417 -10.761  0.00  0.00     0.159 A 
HETATM    9  C   UNK N   1     -15.321  18.564  -7.942  0.00  0.00     0.074 A 
HETATM   10  C   UNK N   1     -16.359  19.309  -5.896  0.00  0.00     0.074 A 
HETATM   11  C   UNK N   1     -15.465  18.470  -6.559  0.00  0.00     0.071 A 
ENDROOT
BRANCH   4  12
HETATM   12  C   UNK N   1     -18.185  22.262 -11.087  0.00  0.00    -0.020 A 
HETATM   13  C   UNK N   1     -18.356  21.975 -12.449  0.00  0.00     0.015 A 
HETATM   14  C   UNK N   1     -19.020  22.882 -13.278  0.00  0.00     0.037 A 
HETATM   15  C   UNK N   1     -19.520  24.083 -12.755  0.00  0.00     0.065 A 
HETATM   16  C   UNK N   1     -19.354  24.369 -11.394  0.00  0.00     0.037 A 
HETATM   17  C   UNK N   1     -18.689  23.462 -10.561  0.00  0.00     0.015 A 
BRANCH  15  18
HETATM   18  O   UNK N   1     -20.159  24.962 -13.552  0.00  0.00    -0.361 OA
HETATM   19  H   UNK N   1     -19.670  25.588 -14.106  0.00  0.00     0.217 HD
ENDBRANCH  15  18
ENDBRANCH   4  12
BRANCH   7  20
HETATM   20  O   UNK N   1     -17.955  21.021  -5.849  0.00  0.00    -0.360 OA
HETATM   21  H   UNK N   1     -17.699  21.700  -5.221  0.00  0.00     0.217 HD
ENDBRANCH   7  20
BRANCH  11  22
HETATM   22  O   UNK N   1     -14.736  17.571  -5.868  0.00  0.00    -0.361 OA
HETATM   23  H   UNK N   1     -15.093  16.698  -5.641  0.00  0.00     0.217 HD
ENDBRANCH  11  22
TORSDOF 4
ENDMDL
MODEL 4
REMARK VINA RESULT:      -7.6      2.369      4.201
REMARK  4 active torsions:
REMARK  status: ('A' for Active; 'I' for Inactive)
REMARK    1  A    between atoms: O_2  and  C_11 
REMARK    2  A    between atoms: O_4  and  C_15 
REMARK    3  A    between atoms: O_5  and  C_20 
REMARK    4  A    between atoms: C_7  and  C_10 
ROOT
HETATM    1  O   UNK N   1     -18.307  21.055  -6.820  0.00  0.00    -0.321 OA
HETATM    2  O   UNK N   1     -15.561  18.401  -7.909  0.00  0.00    -0.286 OA
HETATM    3  C   UNK N   1     -16.788  20.266  -8.496  0.00  0.00     0.082 A 
HETATM    4  C   UNK N   1     -16.982  19.158  -6.331  0.00  0.00     0.048 A 
HETATM    5  C   UNK N   1     -17.779  21.178  -8.037  0.00  0.00     0.094 A 
HETATM    6  C   UNK N   1     -16.395  19.230  -7.602  0.00  0.00     0.200 A 
HETATM    7  C   UNK N   1     -16.251  20.452  -9.814  0.00  0.00     0.085 A 
HETATM    8  C   UNK N   1     -17.947  20.099  -5.974  0.00  0.00     0.159 A 
HETATM    9  C   UNK N   1     -18.216  22.226  -8.855  0.00  0.00     0.074 A 
HETATM   10  C   UNK N   1     -16.713  21.512 -10.602  0.00  0.00     0.074 A 
HETATM   11  C   UNK N   1     -17.686  22.394 -10.133  0.00  0.00     0.071 A 
ENDROOT
BRANCH   4  12
HETATM   12  C   UNK N   1     -16.589  18.110  -5.365  0.00  0.00    -0.020 A 
HETATM   13  C   UNK N   1     -15.233  17.853  -5.118  0.00  0.00     0.015 A 
HETATM   14  C   UNK N   1     -14.863  16.857  -4.211  0.00  0.00     0.037 A 
HETATM   15  C   UNK N   1     -15.843  16.109  -3.543  0.00  0.00     0.065 A 
HETATM   16  C   UNK N   1     -17.199  16.368  -3.786  0.00  0.00     0.037 A 
HETATM   17  C   UNK N   1     -17.572  17.366  -4.693  0.00  0.00     0.015 A 
BRANCH  15  18
HETATM   18  O   UNK N   1     -15.490  15.145  -2.670  0.00  0.00    -0.361 OA
HETATM   19  H   UNK N   1     -15.917  14.276  -2.679  0.00  0.00     0.217 HD
ENDBRANCH  15  18
ENDBRANCH   4  12
BRANCH   7  20
HETATM   20  O   UNK N   1     -15.302  19.660 -10.363  0.00  0.00    -0.360 OA
HETATM   21  H   UNK N   1     -14.691  19.089  -9.893  0.00  0.00     0.217 HD
ENDBRANCH   7  20
BRANCH  11  22
HETATM   22  O   UNK N   1     -18.112  23.411 -10.909  0.00  0.00    -0.361 OA
HETATM   23  H   UNK N   1     -17.714  24.293 -10.851  0.00  0.00     0.217 HD
ENDBRANCH  11  22
TORSDOF 4
ENDMDL
MODEL 5
REMARK VINA RESULT:      -7.5      2.423      4.777
REMARK  4 active torsions:
REMARK  status: ('A' for Active; 'I' for Inactive)
REMARK    1  A    between atoms: O_2  and  C_11 
REMARK    2  A    between atoms: O_4  and  C_15 
REMARK    3  A    between atoms: O_5  and  C_20 
REMARK    4  A    between atoms: C_7  and  C_10 
ROOT
HETATM    1  O   UNK N   1     -15.230  18.973  -9.312  0.00  0.00    -0.321 OA
HETATM    2  O   UNK N   1     -16.864  20.239  -5.921  0.00  0.00    -0.286 OA
HETATM    3  C   UNK N   1     -16.833  20.382  -8.224  0.00  0.00     0.082 A 
HETATM    4  C   UNK N   1     -15.366  18.904  -6.952  0.00  0.00     0.048 A 
HETATM    5  C   UNK N   1     -16.199  19.883  -9.396  0.00  0.00     0.094 A 
HETATM    6  C   UNK N   1     -16.386  19.867  -6.974  0.00  0.00     0.200 A 
HETATM    7  C   UNK N   1     -17.876  21.357  -8.378  0.00  0.00     0.085 A 
HETATM    8  C   UNK N   1     -14.807  18.479  -8.156  0.00  0.00     0.159 A 
HETATM    9  C   UNK N   1     -16.585  20.336 -10.663  0.00  0.00     0.074 A 
HETATM   10  C   UNK N   1     -18.234  21.784  -9.661  0.00  0.00     0.074 A 
HETATM   11  C   UNK N   1     -17.599  21.283 -10.796  0.00  0.00     0.071 A 
ENDROOT
BRANCH   4  12
HETATM   12  C   UNK N   1     -14.886  18.330  -5.677  0.00  0.00    -0.020 A 
HETATM   13  C   UNK N   1     -13.706  18.808  -5.090  0.00  0.00     0.015 A 
HETATM   14  C   UNK N   1     -13.249  18.260  -3.889  0.00  0.00     0.037 A 
HETATM   15  C   UNK N   1     -13.967  17.229  -3.264  0.00  0.00     0.065 A 
HETATM   16  C   UNK N   1     -15.148  16.753  -3.848  0.00  0.00     0.037 A 
HETATM   17  C   UNK N   1     -15.608  17.302  -5.050  0.00  0.00     0.015 A 
BRANCH  15  18
HETATM   18  O   UNK N   1     -13.527  16.695  -2.107  0.00  0.00    -0.361 OA
HETATM   19  H   UNK N   1     -12.594  16.473  -1.977  0.00  0.00     0.217 HD
ENDBRANCH  15  18
ENDBRANCH   4  12
BRANCH   7  20
HETATM   20  O   UNK N   1     -18.560  21.902  -7.346  0.00  0.00    -0.360 OA
HETATM   21  H   UNK N   1     -18.910  21.438  -6.583  0.00  0.00     0.217 HD
ENDBRANCH   7  20
BRANCH  11  22
HETATM   22  O   UNK N   1     -17.964  21.708 -12.023  0.00  0.00    -0.361 OA
HETATM   23  H   UNK N   1     -18.705  22.321 -12.145  0.00  0.00     0.217 HD
ENDBRANCH  11  22
TORSDOF 4
ENDMDL
MODEL 6
REMARK VINA RESULT:      -7.5      0.846      2.475
REMARK  4 active torsions:
REMARK  status: ('A' for Active; 'I' for Inactive)
REMARK    1  A    between atoms: O_2  and  C_11 
REMARK    2  A    between atoms: O_4  and  C_15 
REMARK    3  A    between atoms: O_5  and  C_20 
REMARK    4  A    between atoms: C_7  and  C_10 
ROOT
HETATM    1  O   UNK N   1     -17.492  20.595 -12.698  0.00  0.00    -0.321 OA
HETATM    2  O   UNK N   1     -17.771  22.244  -9.096  0.00  0.00    -0.286 OA
HETATM    3  C   UNK N   1     -18.252  22.421 -11.346  0.00  0.00     0.082 A 
HETATM    4  C   UNK N   1     -17.071  20.521 -10.372  0.00  0.00     0.048 A 
HETATM    5  C   UNK N   1     -18.111  21.770 -12.604  0.00  0.00     0.094 A 
HETATM    6  C   UNK N   1     -17.704  21.762 -10.209  0.00  0.00     0.200 A 
HETATM    7  C   UNK N   1     -18.935  23.683 -11.307  0.00  0.00     0.085 A 
HETATM    8  C   UNK N   1     -16.982  19.965 -11.647  0.00  0.00     0.159 A 
HETATM    9  C   UNK N   1     -18.626  22.352 -13.769  0.00  0.00     0.074 A 
HETATM   10  C   UNK N   1     -19.436  24.232 -12.492  0.00  0.00     0.074 A 
HETATM   11  C   UNK N   1     -19.286  23.577 -13.714  0.00  0.00     0.071 A 
ENDROOT
BRANCH   4  12
HETATM   12  C   UNK N   1     -16.506  19.795  -9.215  0.00  0.00    -0.020 A 
HETATM   13  C   UNK N   1     -15.290  19.108  -9.339  0.00  0.00     0.015 A 
HETATM   14  C   UNK N   1     -14.761  18.416  -8.247  0.00  0.00     0.037 A 
HETATM   15  C   UNK N   1     -15.442  18.404  -7.021  0.00  0.00     0.065 A 
HETATM   16  C   UNK N   1     -16.655  19.093  -6.894  0.00  0.00     0.037 A 
HETATM   17  C   UNK N   1     -17.186  19.788  -7.986  0.00  0.00     0.015 A 
BRANCH  15  18
HETATM   18  O   UNK N   1     -14.937  17.734  -5.966  0.00  0.00    -0.361 OA
HETATM   19  H   UNK N   1     -15.137  16.798  -5.820  0.00  0.00     0.217 HD
ENDBRANCH  15  18
ENDBRANCH   4  12
BRANCH   7  20
HETATM   20  O   UNK N   1     -19.141  24.397 -10.176  0.00  0.00    -0.360 OA
HETATM   21  H   UNK N   1     -19.233  25.349 -10.110  0.00  0.00     0.217 HD
ENDBRANCH   7  20
BRANCH  11  22
HETATM   22  O   UNK N   1     -19.781  24.124 -14.843  0.00  0.00    -0.361 OA
HETATM   23  H   UNK N   1     -19.198  24.423 -15.558  0.00  0.00     0.217 HD
ENDBRANCH  11  22
TORSDOF 4
ENDMDL
MODEL 7
REMARK VINA RESULT:      -7.5      1.404      2.122
REMARK  4 active torsions:
REMARK  status: ('A' for Active; 'I' for Inactive)
REMARK    1  A    between atoms: O_2  and  C_11 
REMARK    2  A    between atoms: O_4  and  C_15 
REMARK    3  A    between atoms: O_5  and  C_20 
REMARK    4  A    between atoms: C_7  and  C_10 
ROOT
HETATM    1  O   UNK N   1     -19.396  24.065 -12.200  0.00  0.00    -0.321 OA
HETATM    2  O   UNK N   1     -17.228  20.769 -12.648  0.00  0.00    -0.286 OA
HETATM    3  C   UNK N   1     -18.322  22.518 -13.681  0.00  0.00     0.082 A 
HETATM    4  C   UNK N   1     -18.229  22.236 -11.259  0.00  0.00     0.048 A 
HETATM    5  C   UNK N   1     -19.098  23.687 -13.442  0.00  0.00     0.094 A 
HETATM    6  C   UNK N   1     -17.888  21.783 -12.541  0.00  0.00     0.200 A 
HETATM    7  C   UNK N   1     -18.026  22.165 -15.040  0.00  0.00     0.085 A 
HETATM    8  C   UNK N   1     -18.994  23.393 -11.128  0.00  0.00     0.159 A 
HETATM    9  C   UNK N   1     -19.559  24.467 -14.509  0.00  0.00     0.074 A 
HETATM   10  C   UNK N   1     -18.505  22.970 -16.079  0.00  0.00     0.074 A 
HETATM   11  C   UNK N   1     -19.264  24.112 -15.823  0.00  0.00     0.071 A 
ENDROOT
BRANCH   4  12
HETATM   12  C   UNK N   1     -17.783  21.512 -10.050  0.00  0.00    -0.020 A 
HETATM   13  C   UNK N   1     -18.349  21.808  -8.802  0.00  0.00     0.015 A 
HETATM   14  C   UNK N   1     -17.921  21.129  -7.659  0.00  0.00     0.037 A 
HETATM   15  C   UNK N   1     -16.924  20.147  -7.752  0.00  0.00     0.065 A 
HETATM   16  C   UNK N   1     -16.359  19.847  -8.999  0.00  0.00     0.037 A 
HETATM   17  C   UNK N   1     -16.787  20.526 -10.145  0.00  0.00     0.015 A 
BRANCH  15  18
HETATM   18  O   UNK N   1     -16.505  19.492  -6.651  0.00  0.00    -0.361 OA
HETATM   19  H   UNK N   1     -17.033  18.783  -6.256  0.00  0.00     0.217 HD
ENDBRANCH  15  18
ENDBRANCH   4  12
BRANCH   7  20
HETATM   20  O   UNK N   1     -17.295  21.086 -15.399  0.00  0.00    -0.360 OA
HETATM   21  H   UNK N   1     -17.421  20.184 -15.099  0.00  0.00     0.217 HD
ENDBRANCH   7  20
BRANCH  11  22
HETATM   22  O   UNK N   1     -19.710  24.874 -16.842  0.00  0.00    -0.361 OA
HETATM   23  H   UNK N   1     -20.184  25.704 -16.681  0.00  0.00     0.217 HD
ENDBRANCH  11  22
TORSDOF 4
ENDMDL
MODEL 8
REMARK VINA RESULT:      -7.5      1.855      7.337
REMARK  4 active torsions:
REMARK  status: ('A' for Active; 'I' for Inactive)
REMARK    1  A    between atoms: O_2  and  C_11 
REMARK    2  A    between atoms: O_4  and  C_15 
REMARK    3  A    between atoms: O_5  and  C_20 
REMARK    4  A    between atoms: C_7  and  C_10 
ROOT
HETATM    1  O   UNK N   1     -15.195  18.807  -8.261  0.00  0.00    -0.321 OA
HETATM    2  O   UNK N   1     -18.103  21.452  -7.698  0.00  0.00    -0.286 OA
HETATM    3  C   UNK N   1     -16.628  19.965  -6.729  0.00  0.00     0.082 A 
HETATM    4  C   UNK N   1     -16.742  20.369  -9.133  0.00  0.00     0.048 A 
HETATM    5  C   UNK N   1     -15.593  19.029  -7.010  0.00  0.00     0.094 A 
HETATM    6  C   UNK N   1     -17.210  20.641  -7.840  0.00  0.00     0.200 A 
HETATM    7  C   UNK N   1     -17.009  20.168  -5.360  0.00  0.00     0.085 A 
HETATM    8  C   UNK N   1     -15.723  19.434  -9.305  0.00  0.00     0.159 A 
HETATM    9  C   UNK N   1     -14.968  18.327  -5.973  0.00  0.00     0.074 A 
HETATM   10  C   UNK N   1     -16.361  19.447  -4.352  0.00  0.00     0.074 A 
HETATM   11  C   UNK N   1     -15.349  18.534  -4.649  0.00  0.00     0.071 A 
ENDROOT
BRANCH   4  12
HETATM   12  C   UNK N   1     -17.306  21.063 -10.310  0.00  0.00    -0.020 A 
HETATM   13  C   UNK N   1     -17.561  22.441 -10.261  0.00  0.00     0.015 A 
HETATM   14  C   UNK N   1     -18.100  23.094 -11.372  0.00  0.00     0.037 A 
HETATM   15  C   UNK N   1     -18.390  22.377 -12.542  0.00  0.00     0.065 A 
HETATM   16  C   UNK N   1     -18.132  21.001 -12.594  0.00  0.00     0.037 A 
HETATM   17  C   UNK N   1     -17.590  20.345 -11.483  0.00  0.00     0.015 A 
BRANCH  15  18
HETATM   18  O   UNK N   1     -18.914  23.003 -13.615  0.00  0.00    -0.361 OA
HETATM   19  H   UNK N   1     -19.640  23.637 -13.523  0.00  0.00     0.217 HD
ENDBRANCH  15  18
ENDBRANCH   4  12
BRANCH   7  20
HETATM   20  O   UNK N   1     -17.971  21.031  -4.963  0.00  0.00    -0.360 OA
HETATM   21  H   UNK N   1     -17.980  21.981  -5.102  0.00  0.00     0.217 HD
ENDBRANCH   7  20
BRANCH  11  22
HETATM   22  O   UNK N   1     -14.736  17.854  -3.659  0.00  0.00    -0.361 OA
HETATM   23  H   UNK N   1     -14.119  18.291  -3.052  0.00  0.00     0.217 HD
ENDBRANCH  11  22
TORSDOF 4
ENDMDL
MODEL 9
REMARK VINA RESULT:      -7.5      2.370      4.230
REMARK  4 active torsions:
REMARK  status: ('A' for Active; 'I' for Inactive)
REMARK    1  A    between atoms: O_2  and  C_11 
REMARK    2  A    between atoms: O_4  and  C_15 
REMARK    3  A    between atoms: O_5  and  C_20 
REMARK    4  A    between atoms: C_7  and  C_10 
ROOT
HETATM    1  O   UNK N   1     -20.850  24.469 -13.311  0.00  0.00    -0.321 OA
HETATM    2  O   UNK N   1     -17.540  22.757 -14.684  0.00  0.00    -0.286 OA
HETATM    3  C   UNK N   1     -19.301  24.185 -15.116  0.00  0.00     0.082 A 
HETATM    4  C   UNK N   1     -18.994  23.040 -12.984  0.00  0.00     0.048 A 
HETATM    5  C   UNK N   1     -20.477  24.758 -14.556  0.00  0.00     0.094 A 
HETATM    6  C   UNK N   1     -18.554  23.299 -14.290  0.00  0.00     0.200 A 
HETATM    7  C   UNK N   1     -18.946  24.539 -16.461  0.00  0.00     0.085 A 
HETATM    8  C   UNK N   1     -20.161  23.650 -12.527  0.00  0.00     0.159 A 
HETATM    9  C   UNK N   1     -21.264  25.642 -15.304  0.00  0.00     0.074 A 
HETATM   10  C   UNK N   1     -19.758  25.427 -17.176  0.00  0.00     0.074 A 
HETATM   11  C   UNK N   1     -20.907  25.977 -16.608  0.00  0.00     0.071 A 
ENDROOT
BRANCH   4  12
HETATM   12  C   UNK N   1     -18.237  22.141 -12.087  0.00  0.00    -0.020 A 
HETATM   13  C   UNK N   1     -17.991  20.813 -12.463  0.00  0.00     0.015 A 
HETATM   14  C   UNK N   1     -17.282  19.963 -11.612  0.00  0.00     0.037 A 
HETATM   15  C   UNK N   1     -16.813  20.431 -10.376  0.00  0.00     0.065 A 
HETATM   16  C   UNK N   1     -17.055  21.759  -9.999  0.00  0.00     0.037 A 
HETATM   17  C   UNK N   1     -17.763  22.613 -10.852  0.00  0.00     0.015 A 
BRANCH  15  18
HETATM   18  O   UNK N   1     -16.132  19.613  -9.549  0.00  0.00    -0.361 OA
HETATM   19  H   UNK N   1     -16.561  19.192  -8.790  0.00  0.00     0.217 HD
ENDBRANCH  15  18
ENDBRANCH   4  12
BRANCH   7  20
HETATM   20  O   UNK N   1     -17.852  24.070 -17.104  0.00  0.00    -0.360 OA
HETATM   21  H   UNK N   1     -17.649  23.152 -17.292  0.00  0.00     0.217 HD
ENDBRANCH   7  20
BRANCH  11  22
HETATM   22  O   UNK N   1     -21.671  26.833 -17.316  0.00  0.00    -0.361 OA
HETATM   23  H   UNK N   1     -21.314  27.669 -17.653  0.00  0.00     0.217 HD
ENDBRANCH  11  22
TORSDOF 4
ENDMDL
