MODEL 1
REMARK VINA RESULT:      -7.5      0.000      0.000
REMARK  6 active torsions:
REMARK  status: ('A' for Active; 'I' for Inactive)
REMARK    1  A    between atoms: O_2  and  C_12 
REMARK    2  A    between atoms: O_3  and  C_14 
REMARK    3  A    between atoms: O_5  and  C_16 
REMARK    4  A    between atoms: O_6  and  C_20 
REMARK    5  A    between atoms: O_7  and  C_22 
REMARK    6  A    between atoms: C_10  and  C_11 
ROOT
HETATM    1  O   UNK N   1     -17.794  20.318  -7.974  0.00  0.00    -0.306 OA
HETATM    2  O   UNK N   1     -14.453  18.181  -8.081  0.00  0.00    -0.284 OA
HETATM    3  C   UNK N   1     -16.309  18.806  -6.862  0.00  0.00     0.084 A 
HETATM    4  C   UNK N   1     -17.490  19.599  -6.900  0.00  0.00     0.096 A 
HETATM    5  C   UNK N   1     -17.039  20.348  -9.064  0.00  0.00     0.123 A 
HETATM    6  C   UNK N   1     -15.853  19.599  -9.123  0.00  0.00     0.152 A 
HETATM    7  C   UNK N   1     -15.484  18.825  -8.019  0.00  0.00     0.223 A 
HETATM    8  C   UNK N   1     -16.034  18.053  -5.673  0.00  0.00     0.085 A 
HETATM    9  C   UNK N   1     -18.357  19.638  -5.806  0.00  0.00     0.075 A 
HETATM   10  C   UNK N   1     -18.081  18.903  -4.658  0.00  0.00     0.071 A 
HETATM   11  C   UNK N   1     -16.927  18.119  -4.595  0.00  0.00     0.074 A 
ENDROOT
BRANCH   5  12
HETATM   12  C   UNK N   1     -17.476  21.177 -10.191  0.00  0.00     0.004 A 
HETATM   13  C   UNK N   1     -17.455  20.659 -11.490  0.00  0.00     0.053 A 
HETATM   14  C   UNK N   1     -17.886  21.434 -12.573  0.00  0.00     0.099 A 
HETATM   15  C   UNK N   1     -18.362  22.752 -12.340  0.00  0.00     0.098 A 
HETATM   16  C   UNK N   1     -18.362  23.263 -11.037  0.00  0.00     0.040 A 
HETATM   17  C   UNK N   1     -17.922  22.483  -9.967  0.00  0.00     0.017 A 
BRANCH  14  18
HETATM   18  O   UNK N   1     -17.826  20.894 -13.810  0.00  0.00    -0.358 OA
HETATM   19  H   UNK N   1     -18.551  20.413 -14.225  0.00  0.00     0.218 HD
ENDBRANCH  14  18
BRANCH  15  20
HETATM   20  O   UNK N   1     -18.831  23.536 -13.336  0.00  0.00    -0.358 OA
HETATM   21  H   UNK N   1     -18.693  23.358 -14.273  0.00  0.00     0.218 HD
ENDBRANCH  15  20
ENDBRANCH   5  12
BRANCH   6  22
HETATM   22  O   UNK N   1     -15.062  19.613 -10.223  0.00  0.00    -0.355 OA
HETATM   23  H   UNK N   1     -14.114  19.426 -10.190  0.00  0.00     0.218 HD
ENDBRANCH   6  22
BRANCH   8  24
HETATM   24  O   UNK N   1     -14.946  17.262  -5.511  0.00  0.00    -0.360 OA
HETATM   25  H   UNK N   1     -14.938  16.305  -5.436  0.00  0.00     0.217 HD
ENDBRANCH   8  24
BRANCH  10  26
HETATM   26  O   UNK N   1     -18.932  18.958  -3.613  0.00  0.00    -0.361 OA
HETATM   27  H   UNK N   1     -19.754  18.446  -3.598  0.00  0.00     0.217 HD
ENDBRANCH  10  26
TORSDOF 6
ENDMDL
MODEL 2
REMARK VINA RESULT:      -7.5     29.489     31.387
REMARK  6 active torsions:
REMARK  status: ('A' for Active; 'I' for Inactive)
REMARK    1  A    between atoms: O_2  and  C_12 
REMARK    2  A    between atoms: O_3  and  C_14 
REMARK    3  A    between atoms: O_5  and  C_16 
REMARK    4  A    between atoms: O_6  and  C_20 
REMARK    5  A    between atoms: O_7  and  C_22 
REMARK    6  A    between atoms: C_10  and  C_11 
ROOT
HETATM    1  O   UNK N   1     -38.710  -2.560  -7.446  0.00  0.00    -0.306 OA
HETATM    2  O   UNK N   1     -35.119  -4.244  -7.377  0.00  0.00    -0.284 OA
HETATM    3  C   UNK N   1     -37.036  -3.830  -8.591  0.00  0.00     0.084 A 
HETATM    4  C   UNK N   1     -38.312  -3.201  -8.538  0.00  0.00     0.096 A 
HETATM    5  C   UNK N   1     -37.968  -2.460  -6.353  0.00  0.00     0.123 A 
HETATM    6  C   UNK N   1     -36.694  -3.047  -6.306  0.00  0.00     0.152 A 
HETATM    7  C   UNK N   1     -36.224  -3.737  -7.429  0.00  0.00     0.223 A 
HETATM    8  C   UNK N   1     -36.663  -4.509  -9.798  0.00  0.00     0.085 A 
HETATM    9  C   UNK N   1     -39.173  -3.245  -9.637  0.00  0.00     0.075 A 
HETATM   10  C   UNK N   1     -38.800  -3.905 -10.803  0.00  0.00     0.071 A 
HETATM   11  C   UNK N   1     -37.554  -4.532 -10.878  0.00  0.00     0.074 A 
ENDROOT
BRANCH   5  12
HETATM   12  C   UNK N   1     -38.512  -1.724  -5.207  0.00  0.00     0.004 A 
HETATM   13  C   UNK N   1     -38.165  -0.384  -5.006  0.00  0.00     0.053 A 
HETATM   14  C   UNK N   1     -38.691   0.333  -3.926  0.00  0.00     0.099 A 
HETATM   15  C   UNK N   1     -39.596  -0.308  -3.038  0.00  0.00     0.098 A 
HETATM   16  C   UNK N   1     -39.922  -1.654  -3.241  0.00  0.00     0.040 A 
HETATM   17  C   UNK N   1     -39.384  -2.361  -4.318  0.00  0.00     0.017 A 
BRANCH  14  18
HETATM   18  O   UNK N   1     -38.309   1.619  -3.766  0.00  0.00    -0.358 OA
HETATM   19  H   UNK N   1     -37.500   1.993  -4.134  0.00  0.00     0.218 HD
ENDBRANCH  14  18
BRANCH  15  20
HETATM   20  O   UNK N   1     -40.171   0.341  -2.001  0.00  0.00    -0.358 OA
HETATM   21  H   UNK N   1     -41.063   0.706  -2.022  0.00  0.00     0.218 HD
ENDBRANCH  15  20
ENDBRANCH   5  12
BRANCH   6  22
HETATM   22  O   UNK N   1     -35.916  -2.963  -5.201  0.00  0.00    -0.355 OA
HETATM   23  H   UNK N   1     -36.271  -2.776  -4.321  0.00  0.00     0.218 HD
ENDBRANCH   6  22
BRANCH   8  24
HETATM   24  O   UNK N   1     -35.480  -5.146  -9.975  0.00  0.00    -0.360 OA
HETATM   25  H   UNK N   1     -34.842  -5.370  -9.293  0.00  0.00     0.217 HD
ENDBRANCH   8  24
BRANCH  10  26
HETATM   26  O   UNK N   1     -39.649  -3.935 -11.850  0.00  0.00    -0.361 OA
HETATM   27  H   UNK N   1     -40.474  -4.442 -11.823  0.00  0.00     0.217 HD
ENDBRANCH  10  26
TORSDOF 6
ENDMDL
MODEL 3
REMARK VINA RESULT:      -7.5      1.755      3.702
REMARK  6 active torsions:
REMARK  status: ('A' for Active; 'I' for Inactive)
REMARK    1  A    between atoms: O_2  and  C_12 
REMARK    2  A    between atoms: O_3  and  C_14 
REMARK    3  A    between atoms: O_5  and  C_16 
REMARK    4  A    between atoms: O_6  and  C_20 
REMARK    5  A    between atoms: O_7  and  C_22 
REMARK    6  A    between atoms: C_10  and  C_11 
ROOT
HETATM    1  O   UNK N   1     -17.114  20.926 -10.600  0.00  0.00    -0.306 OA
HETATM    2  O   UNK N   1     -19.291  22.287  -7.576  0.00  0.00    -0.284 OA
HETATM    3  C   UNK N   1     -17.585  20.891  -8.254  0.00  0.00     0.084 A 
HETATM    4  C   UNK N   1     -16.848  20.451  -9.389  0.00  0.00     0.096 A 
HETATM    5  C   UNK N   1     -18.060  21.824 -10.835  0.00  0.00     0.123 A 
HETATM    6  C   UNK N   1     -18.842  22.320  -9.780  0.00  0.00     0.152 A 
HETATM    7  C   UNK N   1     -18.606  21.852  -8.482  0.00  0.00     0.223 A 
HETATM    8  C   UNK N   1     -17.252  20.339  -6.972  0.00  0.00     0.085 A 
HETATM    9  C   UNK N   1     -15.827  19.508  -9.253  0.00  0.00     0.075 A 
HETATM   10  C   UNK N   1     -15.512  18.980  -8.006  0.00  0.00     0.071 A 
HETATM   11  C   UNK N   1     -16.223  19.394  -6.877  0.00  0.00     0.074 A 
ENDROOT
BRANCH   5  12
HETATM   12  C   UNK N   1     -18.263  22.279 -12.214  0.00  0.00     0.004 A 
HETATM   13  C   UNK N   1     -17.713  21.555 -13.277  0.00  0.00     0.053 A 
HETATM   14  C   UNK N   1     -17.914  21.969 -14.599  0.00  0.00     0.099 A 
HETATM   15  C   UNK N   1     -18.696  23.127 -14.855  0.00  0.00     0.098 A 
HETATM   16  C   UNK N   1     -19.227  23.851 -13.780  0.00  0.00     0.040 A 
HETATM   17  C   UNK N   1     -19.012  23.432 -12.467  0.00  0.00     0.017 A 
BRANCH  14  18
HETATM   18  O   UNK N   1     -17.345  21.246 -15.589  0.00  0.00    -0.358 OA
HETATM   19  H   UNK N   1     -17.784  20.523 -16.051  0.00  0.00     0.218 HD
ENDBRANCH  14  18
BRANCH  15  20
HETATM   20  O   UNK N   1     -18.962  23.555 -16.109  0.00  0.00    -0.358 OA
HETATM   21  H   UNK N   1     -18.285  23.764 -16.762  0.00  0.00     0.218 HD
ENDBRANCH  15  20
ENDBRANCH   5  12
BRANCH   6  22
HETATM   22  O   UNK N   1     -19.818  23.235  -9.991  0.00  0.00    -0.355 OA
HETATM   23  H   UNK N   1     -19.713  23.987 -10.591  0.00  0.00     0.218 HD
ENDBRANCH   6  22
BRANCH   8  24
HETATM   24  O   UNK N   1     -17.878  20.674  -5.818  0.00  0.00    -0.360 OA
HETATM   25  H   UNK N   1     -17.473  21.057  -5.036  0.00  0.00     0.217 HD
ENDBRANCH   8  24
BRANCH  10  26
HETATM   26  O   UNK N   1     -14.523  18.069  -7.900  0.00  0.00    -0.361 OA
HETATM   27  H   UNK N   1     -14.657  17.221  -7.452  0.00  0.00     0.217 HD
ENDBRANCH  10  26
TORSDOF 6
ENDMDL
MODEL 4
REMARK VINA RESULT:      -7.4      3.492      9.618
REMARK  6 active torsions:
REMARK  status: ('A' for Active; 'I' for Inactive)
REMARK    1  A    between atoms: O_2  and  C_12 
REMARK    2  A    between atoms: O_3  and  C_14 
REMARK    3  A    between atoms: O_5  and  C_16 
REMARK    4  A    between atoms: O_6  and  C_20 
REMARK    5  A    between atoms: O_7  and  C_22 
REMARK    6  A    between atoms: C_10  and  C_11 
ROOT
HETATM    1  O   UNK N   1     -17.806  23.325 -14.545  0.00  0.00    -0.306 OA
HETATM    2  O   UNK N   1     -21.381  25.036 -14.395  0.00  0.00    -0.284 OA
HETATM    3  C   UNK N   1     -19.420  24.759 -15.576  0.00  0.00     0.084 A 
HETATM    4  C   UNK N   1     -18.154  24.111 -15.557  0.00  0.00     0.096 A 
HETATM    5  C   UNK N   1     -18.593  23.091 -13.505  0.00  0.00     0.123 A 
HETATM    6  C   UNK N   1     -19.862  23.686 -13.431  0.00  0.00     0.152 A 
HETATM    7  C   UNK N   1     -20.280  24.525 -14.469  0.00  0.00     0.223 A 
HETATM    8  C   UNK N   1     -19.737  25.597 -16.696  0.00  0.00     0.085 A 
HETATM    9  C   UNK N   1     -17.248  24.287 -16.605  0.00  0.00     0.075 A 
HETATM   10  C   UNK N   1     -17.566  25.101 -17.687  0.00  0.00     0.071 A 
HETATM   11  C   UNK N   1     -18.802  25.750 -17.727  0.00  0.00     0.074 A 
ENDROOT
BRANCH   5  12
HETATM   12  C   UNK N   1     -18.104  22.203 -12.446  0.00  0.00     0.004 A 
HETATM   13  C   UNK N   1     -18.004  22.670 -11.131  0.00  0.00     0.053 A 
HETATM   14  C   UNK N   1     -17.555  21.827 -10.108  0.00  0.00     0.099 A 
HETATM   15  C   UNK N   1     -17.213  20.482 -10.413  0.00  0.00     0.098 A 
HETATM   16  C   UNK N   1     -17.301  20.033 -11.737  0.00  0.00     0.040 A 
HETATM   17  C   UNK N   1     -17.743  20.887 -12.749  0.00  0.00     0.017 A 
BRANCH  14  18
HETATM   18  O   UNK N   1     -17.459  22.332  -8.859  0.00  0.00    -0.358 OA
HETATM   19  H   UNK N   1     -18.008  23.050  -8.523  0.00  0.00     0.218 HD
ENDBRANCH  14  18
BRANCH  15  20
HETATM   20  O   UNK N   1     -16.813  19.607  -9.465  0.00  0.00    -0.358 OA
HETATM   21  H   UNK N   1     -16.028  19.725  -8.919  0.00  0.00     0.218 HD
ENDBRANCH  15  20
ENDBRANCH   5  12
BRANCH   6  22
HETATM   22  O   UNK N   1     -20.687  23.467 -12.378  0.00  0.00    -0.355 OA
HETATM   23  H   UNK N   1     -21.651  23.506 -12.448  0.00  0.00     0.218 HD
ENDBRANCH   6  22
BRANCH   8  24
HETATM   24  O   UNK N   1     -20.906  26.269 -16.833  0.00  0.00    -0.360 OA
HETATM   25  H   UNK N   1     -21.061  27.196 -16.639  0.00  0.00     0.217 HD
ENDBRANCH   8  24
BRANCH  10  26
HETATM   26  O   UNK N   1     -16.674  25.257 -18.686  0.00  0.00    -0.361 OA
HETATM   27  H   UNK N   1     -15.928  24.652 -18.802  0.00  0.00     0.217 HD
ENDBRANCH  10  26
TORSDOF 6
ENDMDL
MODEL 5
REMARK VINA RESULT:      -7.3      2.348      4.246
REMARK  6 active torsions:
REMARK  status: ('A' for Active; 'I' for Inactive)
REMARK    1  A    between atoms: O_2  and  C_12 
REMARK    2  A    between atoms: O_3  and  C_14 
REMARK    3  A    between atoms: O_5  and  C_16 
REMARK    4  A    between atoms: O_6  and  C_20 
REMARK    5  A    between atoms: O_7  and  C_22 
REMARK    6  A    between atoms: C_10  and  C_11 
ROOT
HETATM    1  O   UNK N   1     -15.007  18.656  -5.903  0.00  0.00    -0.306 OA
HETATM    2  O   UNK N   1     -17.876  16.648  -4.041  0.00  0.00    -0.284 OA
HETATM    3  C   UNK N   1     -15.635  17.186  -4.123  0.00  0.00     0.084 A 
HETATM    4  C   UNK N   1     -14.663  17.933  -4.844  0.00  0.00     0.096 A 
HETATM    5  C   UNK N   1     -16.251  18.734  -6.355  0.00  0.00     0.123 A 
HETATM    6  C   UNK N   1     -17.282  18.032  -5.711  0.00  0.00     0.152 A 
HETATM    7  C   UNK N   1     -16.975  17.253  -4.591  0.00  0.00     0.223 A 
HETATM    8  C   UNK N   1     -15.201  16.423  -2.988  0.00  0.00     0.085 A 
HETATM    9  C   UNK N   1     -13.322  17.923  -4.453  0.00  0.00     0.075 A 
HETATM   10  C   UNK N   1     -12.912  17.180  -3.350  0.00  0.00     0.071 A 
HETATM   11  C   UNK N   1     -13.848  16.436  -2.627  0.00  0.00     0.074 A 
ENDROOT
BRANCH   5  12
HETATM   12  C   UNK N   1     -16.514  19.566  -7.533  0.00  0.00     0.004 A 
HETATM   13  C   UNK N   1     -15.828  19.324  -8.728  0.00  0.00     0.053 A 
HETATM   14  C   UNK N   1     -16.083  20.100  -9.864  0.00  0.00     0.099 A 
HETATM   15  C   UNK N   1     -17.058  21.131  -9.800  0.00  0.00     0.098 A 
HETATM   16  C   UNK N   1     -17.725  21.373  -8.593  0.00  0.00     0.040 A 
HETATM   17  C   UNK N   1     -17.456  20.597  -7.465  0.00  0.00     0.017 A 
BRANCH  14  18
HETATM   18  O   UNK N   1     -15.379  19.839 -10.988  0.00  0.00    -0.358 OA
HETATM   19  H   UNK N   1     -14.425  19.703 -11.009  0.00  0.00     0.218 HD
ENDBRANCH  14  18
BRANCH  15  20
HETATM   20  O   UNK N   1     -17.380  21.888 -10.872  0.00  0.00    -0.358 OA
HETATM   21  H   UNK N   1     -16.733  22.310 -11.448  0.00  0.00     0.218 HD
ENDBRANCH  15  20
ENDBRANCH   5  12
BRANCH   6  22
HETATM   22  O   UNK N   1     -18.561  18.091  -6.152  0.00  0.00    -0.355 OA
HETATM   23  H   UNK N   1     -18.797  18.381  -7.044  0.00  0.00     0.218 HD
ENDBRANCH   6  22
BRANCH   8  24
HETATM   24  O   UNK N   1     -16.026  15.671  -2.221  0.00  0.00    -0.360 OA
HETATM   25  H   UNK N   1     -16.968  15.538  -2.350  0.00  0.00     0.217 HD
ENDBRANCH   8  24
BRANCH  10  26
HETATM   26  O   UNK N   1     -11.613  17.184  -2.992  0.00  0.00    -0.361 OA
HETATM   27  H   UNK N   1     -11.168  16.384  -2.678  0.00  0.00     0.217 HD
ENDBRANCH  10  26
TORSDOF 6
ENDMDL
MODEL 6
REMARK VINA RESULT:      -7.3      2.106      7.684
REMARK  6 active torsions:
REMARK  status: ('A' for Active; 'I' for Inactive)
REMARK    1  A    between atoms: O_2  and  C_12 
REMARK    2  A    between atoms: O_3  and  C_14 
REMARK    3  A    between atoms: O_5  and  C_16 
REMARK    4  A    between atoms: O_6  and  C_20 
REMARK    5  A    between atoms: O_7  and  C_22 
REMARK    6  A    between atoms: C_10  and  C_11 
ROOT
HETATM    1  O   UNK N   1     -16.608  18.901  -6.575  0.00  0.00    -0.306 OA
HETATM    2  O   UNK N   1     -19.393  21.724  -6.658  0.00  0.00    -0.284 OA
HETATM    3  C   UNK N   1     -17.702  20.644  -7.796  0.00  0.00     0.084 A 
HETATM    4  C   UNK N   1     -16.726  19.615  -7.689  0.00  0.00     0.096 A 
HETATM    5  C   UNK N   1     -17.371  19.089  -5.509  0.00  0.00     0.123 A 
HETATM    6  C   UNK N   1     -18.364  20.082  -5.516  0.00  0.00     0.152 A 
HETATM    7  C   UNK N   1     -18.531  20.865  -6.663  0.00  0.00     0.223 A 
HETATM    8  C   UNK N   1     -17.781  21.381  -9.024  0.00  0.00     0.085 A 
HETATM    9  C   UNK N   1     -15.870  19.331  -8.755  0.00  0.00     0.075 A 
HETATM   10  C   UNK N   1     -15.955  20.052  -9.942  0.00  0.00     0.071 A 
HETATM   11  C   UNK N   1     -16.904  21.069 -10.070  0.00  0.00     0.074 A 
ENDROOT
BRANCH   5  12
HETATM   12  C   UNK N   1     -17.151  18.239  -4.335  0.00  0.00     0.004 A 
HETATM   13  C   UNK N   1     -17.746  16.975  -4.265  0.00  0.00     0.053 A 
HETATM   14  C   UNK N   1     -17.530  16.147  -3.158  0.00  0.00     0.099 A 
HETATM   15  C   UNK N   1     -16.685  16.595  -2.107  0.00  0.00     0.098 A 
HETATM   16  C   UNK N   1     -16.109  17.869  -2.183  0.00  0.00     0.040 A 
HETATM   17  C   UNK N   1     -16.340  18.688  -3.289  0.00  0.00     0.017 A 
BRANCH  14  18
HETATM   18  O   UNK N   1     -18.143  14.943  -3.129  0.00  0.00    -0.358 OA
HETATM   19  H   UNK N   1     -18.350  14.424  -3.915  0.00  0.00     0.218 HD
ENDBRANCH  14  18
BRANCH  15  20
HETATM   20  O   UNK N   1     -16.402  15.827  -1.031  0.00  0.00    -0.358 OA
HETATM   21  H   UNK N   1     -15.666  15.991  -0.431  0.00  0.00     0.218 HD
ENDBRANCH  15  20
ENDBRANCH   5  12
BRANCH   6  22
HETATM   22  O   UNK N   1     -19.157  20.299  -4.439  0.00  0.00    -0.355 OA
HETATM   23  H   UNK N   1     -20.017  19.872  -4.326  0.00  0.00     0.218 HD
ENDBRANCH   6  22
BRANCH   8  24
HETATM   24  O   UNK N   1     -18.664  22.384  -9.251  0.00  0.00    -0.360 OA
HETATM   25  H   UNK N   1     -19.597  22.388  -9.027  0.00  0.00     0.217 HD
ENDBRANCH   8  24
BRANCH  10  26
HETATM   26  O   UNK N   1     -15.117  19.761 -10.958  0.00  0.00    -0.361 OA
HETATM   27  H   UNK N   1     -14.391  20.352 -11.204  0.00  0.00     0.217 HD
ENDBRANCH  10  26
TORSDOF 6
ENDMDL
MODEL 7
REMARK VINA RESULT:      -7.2      2.410      8.422
REMARK  6 active torsions:
REMARK  status: ('A' for Active; 'I' for Inactive)
REMARK    1  A    between atoms: O_2  and  C_12 
REMARK    2  A    between atoms: O_3  and  C_14 
REMARK    3  A    between atoms: O_5  and  C_16 
REMARK    4  A    between atoms: O_6  and  C_20 
REMARK    5  A    between atoms: O_7  and  C_22 
REMARK    6  A    between atoms: C_10  and  C_11 
ROOT
HETATM    1  O   UNK N   1     -17.897  22.460 -12.534  0.00  0.00    -0.306 OA
HETATM    2  O   UNK N   1     -21.474  24.159 -12.302  0.00  0.00    -0.284 OA
HETATM    3  C   UNK N   1     -19.622  23.726 -13.606  0.00  0.00     0.084 A 
HETATM    4  C   UNK N   1     -18.348  23.093 -13.611  0.00  0.00     0.096 A 
HETATM    5  C   UNK N   1     -18.584  22.373 -11.404  0.00  0.00     0.123 A 
HETATM    6  C   UNK N   1     -19.852  22.966 -11.300  0.00  0.00     0.152 A 
HETATM    7  C   UNK N   1     -20.375  23.648 -12.404  0.00  0.00     0.223 A 
HETATM    8  C   UNK N   1     -20.053  24.395 -14.800  0.00  0.00     0.085 A 
HETATM    9  C   UNK N   1     -17.542  23.123 -14.751  0.00  0.00     0.075 A 
HETATM   10  C   UNK N   1     -17.970  23.774 -15.904  0.00  0.00     0.071 A 
HETATM   11  C   UNK N   1     -19.216  24.405 -15.923  0.00  0.00     0.074 A 
ENDROOT
BRANCH   5  12
HETATM   12  C   UNK N   1     -17.987  21.647 -10.280  0.00  0.00     0.004 A 
HETATM   13  C   UNK N   1     -18.416  21.903  -8.973  0.00  0.00     0.053 A 
HETATM   14  C   UNK N   1     -17.866  21.204  -7.893  0.00  0.00     0.099 A 
HETATM   15  C   UNK N   1     -16.874  20.216  -8.135  0.00  0.00     0.098 A 
HETATM   16  C   UNK N   1     -16.442  19.982  -9.446  0.00  0.00     0.040 A 
HETATM   17  C   UNK N   1     -16.993  20.692 -10.513  0.00  0.00     0.017 A 
BRANCH  14  18
HETATM   18  O   UNK N   1     -18.301  21.503  -6.649  0.00  0.00    -0.358 OA
HETATM   19  H   UNK N   1     -18.618  22.373  -6.383  0.00  0.00     0.218 HD
ENDBRANCH  14  18
BRANCH  15  20
HETATM   20  O   UNK N   1     -16.333  19.477  -7.141  0.00  0.00    -0.358 OA
HETATM   21  H   UNK N   1     -15.522  18.965  -7.230  0.00  0.00     0.218 HD
ENDBRANCH  15  20
ENDBRANCH   5  12
BRANCH   6  22
HETATM   22  O   UNK N   1     -20.575  22.895 -10.156  0.00  0.00    -0.355 OA
HETATM   23  H   UNK N   1     -20.339  22.314  -9.420  0.00  0.00     0.218 HD
ENDBRANCH   6  22
BRANCH   8  24
HETATM   24  O   UNK N   1     -21.241  25.036 -14.923  0.00  0.00    -0.360 OA
HETATM   25  H   UNK N   1     -21.900  25.158 -14.236  0.00  0.00     0.217 HD
ENDBRANCH   8  24
BRANCH  10  26
HETATM   26  O   UNK N   1     -17.174  23.790 -16.992  0.00  0.00    -0.361 OA
HETATM   27  H   UNK N   1     -17.338  23.214 -17.753  0.00  0.00     0.217 HD
ENDBRANCH  10  26
TORSDOF 6
ENDMDL
MODEL 8
REMARK VINA RESULT:      -7.2      1.529      7.248
REMARK  6 active torsions:
REMARK  status: ('A' for Active; 'I' for Inactive)
REMARK    1  A    between atoms: O_2  and  C_12 
REMARK    2  A    between atoms: O_3  and  C_14 
REMARK    3  A    between atoms: O_5  and  C_16 
REMARK    4  A    between atoms: O_6  and  C_20 
REMARK    5  A    between atoms: O_7  and  C_22 
REMARK    6  A    between atoms: C_10  and  C_11 
ROOT
HETATM    1  O   UNK N   1     -17.076  20.393 -10.740  0.00  0.00    -0.306 OA
HETATM    2  O   UNK N   1     -19.183  23.618  -9.796  0.00  0.00    -0.284 OA
HETATM    3  C   UNK N   1     -18.298  22.313 -11.479  0.00  0.00     0.084 A 
HETATM    4  C   UNK N   1     -17.533  21.141 -11.737  0.00  0.00     0.096 A 
HETATM    5  C   UNK N   1     -17.293  20.675  -9.463  0.00  0.00     0.123 A 
HETATM    6  C   UNK N   1     -18.036  21.811  -9.106  0.00  0.00     0.152 A 
HETATM    7  C   UNK N   1     -18.541  22.636 -10.116  0.00  0.00     0.223 A 
HETATM    8  C   UNK N   1     -18.763  23.081 -12.598  0.00  0.00     0.085 A 
HETATM    9  C   UNK N   1     -17.248  20.752 -13.047  0.00  0.00     0.075 A 
HETATM   10  C   UNK N   1     -17.705  21.503 -14.125  0.00  0.00     0.071 A 
HETATM   11  C   UNK N   1     -18.455  22.659 -13.897  0.00  0.00     0.074 A 
ENDROOT
BRANCH   5  12
HETATM   12  C   UNK N   1     -16.740  19.774  -8.447  0.00  0.00     0.004 A 
HETATM   13  C   UNK N   1     -15.445  19.266  -8.593  0.00  0.00     0.053 A 
HETATM   14  C   UNK N   1     -14.899  18.420  -7.621  0.00  0.00     0.099 A 
HETATM   15  C   UNK N   1     -15.667  18.090  -6.473  0.00  0.00     0.098 A 
HETATM   16  C   UNK N   1     -16.968  18.592  -6.348  0.00  0.00     0.040 A 
HETATM   17  C   UNK N   1     -17.503  19.429  -7.328  0.00  0.00     0.017 A 
BRANCH  14  18
HETATM   18  O   UNK N   1     -13.651  17.940  -7.819  0.00  0.00    -0.358 OA
HETATM   19  H   UNK N   1     -12.851  18.361  -7.484  0.00  0.00     0.218 HD
ENDBRANCH  14  18
BRANCH  15  20
HETATM   20  O   UNK N   1     -15.183  17.312  -5.479  0.00  0.00    -0.358 OA
HETATM   21  H   UNK N   1     -14.446  16.701  -5.584  0.00  0.00     0.218 HD
ENDBRANCH  15  20
ENDBRANCH   5  12
BRANCH   6  22
HETATM   22  O   UNK N   1     -18.271  22.124  -7.809  0.00  0.00    -0.355 OA
HETATM   23  H   UNK N   1     -17.663  21.892  -7.094  0.00  0.00     0.218 HD
ENDBRANCH   6  22
BRANCH   8  24
HETATM   24  O   UNK N   1     -19.498  24.214 -12.486  0.00  0.00    -0.360 OA
HETATM   25  H   UNK N   1     -19.168  25.116 -12.497  0.00  0.00     0.217 HD
ENDBRANCH   8  24
BRANCH  10  26
HETATM   26  O   UNK N   1     -17.415  21.108 -15.381  0.00  0.00    -0.361 OA
HETATM   27  H   UNK N   1     -17.608  21.667 -16.148  0.00  0.00     0.217 HD
ENDBRANCH  10  26
TORSDOF 6
ENDMDL
MODEL 9
REMARK VINA RESULT:      -7.2      3.618      9.478
REMARK  6 active torsions:
REMARK  status: ('A' for Active; 'I' for Inactive)
REMARK    1  A    between atoms: O_2  and  C_12 
REMARK    2  A    between atoms: O_3  and  C_14 
REMARK    3  A    between atoms: O_5  and  C_16 
REMARK    4  A    between atoms: O_6  and  C_20 
REMARK    5  A    between atoms: O_7  and  C_22 
REMARK    6  A    between atoms: C_10  and  C_11 
ROOT
HETATM    1  O   UNK N   1     -19.019  23.283 -14.433  0.00  0.00    -0.306 OA
HETATM    2  O   UNK N   1     -21.003  26.418 -13.028  0.00  0.00    -0.284 OA
HETATM    3  C   UNK N   1     -20.318  25.241 -14.889  0.00  0.00     0.084 A 
HETATM    4  C   UNK N   1     -19.589  24.096 -15.315  0.00  0.00     0.096 A 
HETATM    5  C   UNK N   1     -19.088  23.473 -13.123  0.00  0.00     0.123 A 
HETATM    6  C   UNK N   1     -19.784  24.576 -12.604  0.00  0.00     0.152 A 
HETATM    7  C   UNK N   1     -20.403  25.465 -13.488  0.00  0.00     0.223 A 
HETATM    8  C   UNK N   1     -20.910  26.081 -15.890  0.00  0.00     0.085 A 
HETATM    9  C   UNK N   1     -19.457  23.801 -16.674  0.00  0.00     0.075 A 
HETATM   10  C   UNK N   1     -20.035  24.622 -17.636  0.00  0.00     0.071 A 
HETATM   11  C   UNK N   1     -20.754  25.753 -17.243  0.00  0.00     0.074 A 
ENDROOT
BRANCH   5  12
HETATM   12  C   UNK N   1     -18.421  22.508 -12.243  0.00  0.00     0.004 A 
HETATM   13  C   UNK N   1     -18.142  21.217 -12.704  0.00  0.00     0.053 A 
HETATM   14  C   UNK N   1     -17.490  20.293 -11.880  0.00  0.00     0.099 A 
HETATM   15  C   UNK N   1     -17.099  20.681 -10.571  0.00  0.00     0.098 A 
HETATM   16  C   UNK N   1     -17.399  21.971 -10.117  0.00  0.00     0.040 A 
HETATM   17  C   UNK N   1     -18.057  22.880 -10.946  0.00  0.00     0.017 A 
BRANCH  14  18
HETATM   18  O   UNK N   1     -17.261  19.053 -12.366  0.00  0.00    -0.358 OA
HETATM   19  H   UNK N   1     -17.922  18.523 -12.827  0.00  0.00     0.218 HD
ENDBRANCH  14  18
BRANCH  15  20
HETATM   20  O   UNK N   1     -16.430  19.849  -9.741  0.00  0.00    -0.358 OA
HETATM   21  H   UNK N   1     -16.719  19.632  -8.848  0.00  0.00     0.218 HD
ENDBRANCH  15  20
ENDBRANCH   5  12
BRANCH   6  22
HETATM   22  O   UNK N   1     -19.868  24.796 -11.270  0.00  0.00    -0.355 OA
HETATM   23  H   UNK N   1     -20.492  25.422 -10.878  0.00  0.00     0.218 HD
ENDBRANCH   6  22
BRANCH   8  24
HETATM   24  O   UNK N   1     -21.626  27.198 -15.615  0.00  0.00    -0.360 OA
HETATM   25  H   UNK N   1     -21.583  28.036 -16.081  0.00  0.00     0.217 HD
ENDBRANCH   8  24
BRANCH  10  26
HETATM   26  O   UNK N   1     -19.893  24.318 -18.942  0.00  0.00    -0.361 OA
HETATM   27  H   UNK N   1     -19.041  24.044 -19.311  0.00  0.00     0.217 HD
ENDBRANCH  10  26
TORSDOF 6
ENDMDL
