MODEL 1
REMARK VINA RESULT:      -5.1      0.000      0.000
REMARK  6 active torsions:
REMARK  status: ('A' for Active; 'I' for Inactive)
REMARK    1  A    between atoms: O_1  and  C_7 
REMARK    2  A    between atoms: O_2  and  C_10 
REMARK    3  A    between atoms: O_3  and  C_11 
REMARK    4  A    between atoms: O_4  and  C_12 
REMARK    5  A    between atoms: O_5  and  C_13 
REMARK    6  A    between atoms: C_7  and  C_13 
ROOT
HETATM    1  C   UNK N   1     -37.942  -1.373  -4.926  0.00  0.00     0.147 C 
HETATM    2  C   UNK N   1     -36.644  -2.106  -4.492  0.00  0.00     0.083 C 
HETATM    3  C   UNK N   1     -39.022  -2.424  -5.287  0.00  0.00     0.083 C 
HETATM    4  C   UNK N   1     -36.134  -3.095  -5.565  0.00  0.00     0.152 C 
HETATM    5  C   UNK N   1     -38.550  -3.437  -6.351  0.00  0.00     0.152 C 
HETATM    6  C   UNK N   1     -37.235  -4.125  -5.900  0.00  0.00     0.175 C 
ENDROOT
BRANCH   1   7
HETATM    7  O   UNK N   1     -37.701  -0.551  -6.046  0.00  0.00    -0.379 OA
HETATM    8  H   UNK N   1     -38.082  -0.998  -6.847  0.00  0.00     0.211 HD
ENDBRANCH   1   7
BRANCH   1   9
HETATM    9  C   UNK N   1     -38.455  -0.529  -3.771  0.00  0.00     0.176 C 
HETATM   10  O   UNK N   1     -39.410  -0.897  -3.107  0.00  0.00    -0.648 OA
BRANCH   9  11
HETATM   11  O   UNK N   1     -37.845   0.643  -3.479  0.00  0.00    -0.774 OA
HETATM   12  H   UNK N   1     -37.407   1.166  -4.164  0.00  0.00     0.167 HD
ENDBRANCH   9  11
ENDBRANCH   1   9
BRANCH   4  13
HETATM   13  O   UNK N   1     -35.006  -3.781  -5.081  0.00  0.00    -0.393 OA
HETATM   14  H   UNK N   1     -34.757  -3.363  -4.216  0.00  0.00     0.210 HD
ENDBRANCH   4  13
BRANCH   5  15
HETATM   15  O   UNK N   1     -38.458  -2.859  -7.632  0.00  0.00    -0.393 OA
HETATM   16  H   UNK N   1     -38.068  -1.956  -7.565  0.00  0.00     0.210 HD
ENDBRANCH   5  15
BRANCH   6  17
HETATM   17  O   UNK N   1     -36.772  -5.005  -6.893  0.00  0.00    -0.390 OA
HETATM   18  H   UNK N   1     -36.290  -4.455  -7.565  0.00  0.00     0.210 HD
ENDBRANCH   6  17
TORSDOF 6
ENDMDL
MODEL 2
REMARK VINA RESULT:      -5.0     21.575     23.177
REMARK  6 active torsions:
REMARK  status: ('A' for Active; 'I' for Inactive)
REMARK    1  A    between atoms: O_1  and  C_7 
REMARK    2  A    between atoms: O_2  and  C_10 
REMARK    3  A    between atoms: O_3  and  C_11 
REMARK    4  A    between atoms: O_4  and  C_12 
REMARK    5  A    between atoms: O_5  and  C_13 
REMARK    6  A    between atoms: C_7  and  C_13 
ROOT
HETATM    1  C   UNK N   1     -31.341  20.486  -8.106  0.00  0.00     0.147 C 
HETATM    2  C   UNK N   1     -30.158  20.333  -9.101  0.00  0.00     0.083 C 
HETATM    3  C   UNK N   1     -31.219  19.403  -7.004  0.00  0.00     0.083 C 
HETATM    4  C   UNK N   1     -30.073  18.914  -9.709  0.00  0.00     0.152 C 
HETATM    5  C   UNK N   1     -31.124  17.970  -7.568  0.00  0.00     0.152 C 
HETATM    6  C   UNK N   1     -29.954  17.863  -8.582  0.00  0.00     0.175 C 
ENDROOT
BRANCH   1   7
HETATM    7  O   UNK N   1     -32.575  20.335  -8.771  0.00  0.00    -0.379 OA
HETATM    8  H   UNK N   1     -33.008  21.228  -8.827  0.00  0.00     0.211 HD
ENDBRANCH   1   7
BRANCH   1   9
HETATM    9  C   UNK N   1     -31.274  21.854  -7.450  0.00  0.00     0.176 C 
HETATM   10  O   UNK N   1     -30.202  22.333  -7.117  0.00  0.00    -0.648 OA
BRANCH   9  11
HETATM   11  O   UNK N   1     -32.417  22.545  -7.231  0.00  0.00    -0.774 OA
HETATM   12  H   UNK N   1     -33.283  22.132  -7.345  0.00  0.00     0.167 HD
ENDBRANCH   9  11
ENDBRANCH   1   9
BRANCH   4  13
HETATM   13  O   UNK N   1     -28.941  18.819 -10.536  0.00  0.00    -0.393 OA
HETATM   14  H   UNK N   1     -29.266  18.743 -11.470  0.00  0.00     0.210 HD
ENDBRANCH   4  13
BRANCH   5  15
HETATM   15  O   UNK N   1     -32.351  17.522  -8.094  0.00  0.00    -0.393 OA
HETATM   16  H   UNK N   1     -33.086  17.768  -7.484  0.00  0.00     0.210 HD
ENDBRANCH   5  15
BRANCH   6  17
HETATM   17  O   UNK N   1     -29.902  16.575  -9.142  0.00  0.00    -0.390 OA
HETATM   18  H   UNK N   1     -30.624  16.044  -8.714  0.00  0.00     0.210 HD
ENDBRANCH   6  17
TORSDOF 6
ENDMDL
MODEL 3
REMARK VINA RESULT:      -4.9     20.579     22.215
REMARK  6 active torsions:
REMARK  status: ('A' for Active; 'I' for Inactive)
REMARK    1  A    between atoms: O_1  and  C_7 
REMARK    2  A    between atoms: O_2  and  C_10 
REMARK    3  A    between atoms: O_3  and  C_11 
REMARK    4  A    between atoms: O_4  and  C_12 
REMARK    5  A    between atoms: O_5  and  C_13 
REMARK    6  A    between atoms: C_7  and  C_13 
ROOT
HETATM    1  C   UNK N   1     -22.830  12.200   1.974  0.00  0.00     0.147 C 
HETATM    2  C   UNK N   1     -23.840  11.984   0.814  0.00  0.00     0.083 C 
HETATM    3  C   UNK N   1     -22.245  13.631   1.878  0.00  0.00     0.083 C 
HETATM    4  C   UNK N   1     -23.215  12.247  -0.574  0.00  0.00     0.152 C 
HETATM    5  C   UNK N   1     -21.617  13.939   0.503  0.00  0.00     0.152 C 
HETATM    6  C   UNK N   1     -22.642  13.681  -0.633  0.00  0.00     0.175 C 
ENDROOT
BRANCH   1   7
HETATM    7  O   UNK N   1     -21.779  11.262   1.901  0.00  0.00    -0.379 OA
HETATM    8  H   UNK N   1     -22.149  10.407   1.556  0.00  0.00     0.211 HD
ENDBRANCH   1   7
BRANCH   1   9
HETATM    9  C   UNK N   1     -23.551  12.060   3.304  0.00  0.00     0.176 C 
HETATM   10  O   UNK N   1     -23.099  12.573   4.314  0.00  0.00    -0.648 OA
BRANCH   9  11
HETATM   11  O   UNK N   1     -24.705  11.356   3.365  0.00  0.00    -0.774 OA
HETATM   12  H   UNK N   1     -25.461  11.673   3.878  0.00  0.00     0.167 HD
ENDBRANCH   9  11
ENDBRANCH   1   9
BRANCH   4  13
HETATM   13  O   UNK N   1     -24.197  12.112  -1.571  0.00  0.00    -0.393 OA
HETATM   14  H   UNK N   1     -24.909  11.527  -1.203  0.00  0.00     0.210 HD
ENDBRANCH   4  13
BRANCH   5  15
HETATM   15  O   UNK N   1     -20.399  13.258   0.310  0.00  0.00    -0.393 OA
HETATM   16  H   UNK N   1     -19.768  13.833  -0.185  0.00  0.00     0.210 HD
ENDBRANCH   5  15
BRANCH   6  17
HETATM   17  O   UNK N   1     -22.054  13.903  -1.889  0.00  0.00    -0.390 OA
HETATM   18  H   UNK N   1     -21.399  13.172  -2.036  0.00  0.00     0.210 HD
ENDBRANCH   6  17
TORSDOF 6
ENDMDL
MODEL 4
REMARK VINA RESULT:      -4.8      1.185      4.314
REMARK  6 active torsions:
REMARK  status: ('A' for Active; 'I' for Inactive)
REMARK    1  A    between atoms: O_1  and  C_7 
REMARK    2  A    between atoms: O_2  and  C_10 
REMARK    3  A    between atoms: O_3  and  C_11 
REMARK    4  A    between atoms: O_4  and  C_12 
REMARK    5  A    between atoms: O_5  and  C_13 
REMARK    6  A    between atoms: C_7  and  C_13 
ROOT
HETATM    1  C   UNK N   1     -38.052  -3.284  -5.769  0.00  0.00     0.147 C 
HETATM    2  C   UNK N   1     -38.764  -3.139  -4.396  0.00  0.00     0.083 C 
HETATM    3  C   UNK N   1     -36.724  -2.484  -5.738  0.00  0.00     0.083 C 
HETATM    4  C   UNK N   1     -39.002  -1.664  -4.003  0.00  0.00     0.152 C 
HETATM    5  C   UNK N   1     -36.916  -1.005  -5.342  0.00  0.00     0.152 C 
HETATM    6  C   UNK N   1     -37.659  -0.899  -3.984  0.00  0.00     0.175 C 
ENDROOT
BRANCH   1   7
HETATM    7  O   UNK N   1     -38.867  -2.791  -6.808  0.00  0.00    -0.379 OA
HETATM    8  H   UNK N   1     -39.447  -3.533  -7.127  0.00  0.00     0.211 HD
ENDBRANCH   1   7
BRANCH   1   9
HETATM    9  C   UNK N   1     -37.729  -4.747  -6.018  0.00  0.00     0.176 C 
HETATM   10  O   UNK N   1     -37.913  -5.246  -7.116  0.00  0.00    -0.648 OA
BRANCH   9  11
HETATM   11  O   UNK N   1     -37.237  -5.503  -5.009  0.00  0.00    -0.774 OA
HETATM   12  H   UNK N   1     -36.811  -5.100  -4.241  0.00  0.00     0.167 HD
ENDBRANCH   9  11
ENDBRANCH   1   9
BRANCH   4  13
HETATM   13  O   UNK N   1     -39.575  -1.600  -2.721  0.00  0.00    -0.393 OA
HETATM   14  H   UNK N   1     -40.324  -0.951  -2.767  0.00  0.00     0.210 HD
ENDBRANCH   4  13
BRANCH   5  15
HETATM   15  O   UNK N   1     -37.528  -0.255  -6.365  0.00  0.00    -0.393 OA
HETATM   16  H   UNK N   1     -38.472  -0.526  -6.460  0.00  0.00     0.210 HD
ENDBRANCH   5  15
BRANCH   6  17
HETATM   17  O   UNK N   1     -37.887   0.447  -3.650  0.00  0.00    -0.390 OA
HETATM   18  H   UNK N   1     -38.013   0.484  -2.666  0.00  0.00     0.210 HD
ENDBRANCH   6  17
TORSDOF 6
ENDMDL
MODEL 5
REMARK VINA RESULT:      -4.8      3.371      5.253
REMARK  6 active torsions:
REMARK  status: ('A' for Active; 'I' for Inactive)
REMARK    1  A    between atoms: O_1  and  C_7 
REMARK    2  A    between atoms: O_2  and  C_10 
REMARK    3  A    between atoms: O_3  and  C_11 
REMARK    4  A    between atoms: O_4  and  C_12 
REMARK    5  A    between atoms: O_5  and  C_13 
REMARK    6  A    between atoms: C_7  and  C_13 
ROOT
HETATM    1  C   UNK N   1     -37.345  -4.092  -8.240  0.00  0.00     0.147 C 
HETATM    2  C   UNK N   1     -38.611  -3.194  -8.295  0.00  0.00     0.083 C 
HETATM    3  C   UNK N   1     -36.691  -4.133  -9.645  0.00  0.00     0.083 C 
HETATM    4  C   UNK N   1     -39.617  -3.651  -9.375  0.00  0.00     0.152 C 
HETATM    5  C   UNK N   1     -37.665  -4.578 -10.755  0.00  0.00     0.152 C 
HETATM    6  C   UNK N   1     -38.930  -3.681 -10.759  0.00  0.00     0.175 C 
ENDROOT
BRANCH   1   7
HETATM    7  O   UNK N   1     -37.681  -5.403  -7.846  0.00  0.00    -0.379 OA
HETATM    8  H   UNK N   1     -37.873  -5.935  -8.663  0.00  0.00     0.211 HD
ENDBRANCH   1   7
BRANCH   1   9
HETATM    9  C   UNK N   1     -36.349  -3.499  -7.259  0.00  0.00     0.176 C 
HETATM   10  O   UNK N   1     -36.314  -3.880  -6.100  0.00  0.00    -0.648 OA
BRANCH   9  11
HETATM   11  O   UNK N   1     -35.493  -2.537  -7.676  0.00  0.00    -0.774 OA
HETATM   12  H   UNK N   1     -34.594  -2.752  -7.957  0.00  0.00     0.167 HD
ENDBRANCH   9  11
ENDBRANCH   1   9
BRANCH   4  13
HETATM   13  O   UNK N   1     -40.699  -2.755  -9.428  0.00  0.00    -0.393 OA
HETATM   14  H   UNK N   1     -40.445  -2.026 -10.051  0.00  0.00     0.210 HD
ENDBRANCH   4  13
BRANCH   5  15
HETATM   15  O   UNK N   1     -37.964  -5.953 -10.681  0.00  0.00    -0.393 OA
HETATM   16  H   UNK N   1     -37.464  -6.365  -9.938  0.00  0.00     0.210 HD
ENDBRANCH   5  15
BRANCH   6  17
HETATM   17  O   UNK N   1     -39.845  -4.122 -11.731  0.00  0.00    -0.390 OA
HETATM   18  H   UNK N   1     -40.541  -4.648 -11.256  0.00  0.00     0.210 HD
ENDBRANCH   6  17
TORSDOF 6
ENDMDL
MODEL 6
REMARK VINA RESULT:      -4.8     36.897     38.196
REMARK  6 active torsions:
REMARK  status: ('A' for Active; 'I' for Inactive)
REMARK    1  A    between atoms: O_1  and  C_7 
REMARK    2  A    between atoms: O_2  and  C_10 
REMARK    3  A    between atoms: O_3  and  C_11 
REMARK    4  A    between atoms: O_4  and  C_12 
REMARK    5  A    between atoms: O_5  and  C_13 
REMARK    6  A    between atoms: C_7  and  C_13 
ROOT
HETATM    1  C   UNK N   1      -0.953   4.640  -8.656  0.00  0.00     0.147 C 
HETATM    2  C   UNK N   1       0.010   3.652  -9.368  0.00  0.00     0.083 C 
HETATM    3  C   UNK N   1      -0.211   5.307  -7.471  0.00  0.00     0.083 C 
HETATM    4  C   UNK N   1       0.599   2.597  -8.404  0.00  0.00     0.152 C 
HETATM    5  C   UNK N   1       0.399   4.287  -6.486  0.00  0.00     0.152 C 
HETATM    6  C   UNK N   1       1.329   3.298  -7.236  0.00  0.00     0.175 C 
ENDROOT
BRANCH   1   7
HETATM    7  O   UNK N   1      -2.092   3.963  -8.170  0.00  0.00    -0.379 OA
HETATM    8  H   UNK N   1      -2.898   4.475  -8.445  0.00  0.00     0.211 HD
ENDBRANCH   1   7
BRANCH   1   9
HETATM    9  C   UNK N   1      -1.378   5.723  -9.633  0.00  0.00     0.176 C 
HETATM   10  O   UNK N   1      -0.568   6.531 -10.056  0.00  0.00    -0.648 OA
BRANCH   9  11
HETATM   11  O   UNK N   1      -2.668   5.791 -10.034  0.00  0.00    -0.774 OA
HETATM   12  H   UNK N   1      -3.134   5.011 -10.364  0.00  0.00     0.167 HD
ENDBRANCH   9  11
ENDBRANCH   1   9
BRANCH   4  13
HETATM   13  O   UNK N   1       1.519   1.786  -9.091  0.00  0.00    -0.393 OA
HETATM   14  H   UNK N   1       2.293   1.644  -8.485  0.00  0.00     0.210 HD
ENDBRANCH   4  13
BRANCH   5  15
HETATM   15  O   UNK N   1      -0.584   3.640  -5.712  0.00  0.00    -0.393 OA
HETATM   16  H   UNK N   1      -1.451   3.668  -6.181  0.00  0.00     0.210 HD
ENDBRANCH   5  15
BRANCH   6  17
HETATM   17  O   UNK N   1       1.839   2.332  -6.352  0.00  0.00    -0.390 OA
HETATM   18  H   UNK N   1       2.037   2.797  -5.497  0.00  0.00     0.210 HD
ENDBRANCH   6  17
TORSDOF 6
ENDMDL
MODEL 7
REMARK VINA RESULT:      -4.8     21.302     23.134
REMARK  6 active torsions:
REMARK  status: ('A' for Active; 'I' for Inactive)
REMARK    1  A    between atoms: O_1  and  C_7 
REMARK    2  A    between atoms: O_2  and  C_10 
REMARK    3  A    between atoms: O_3  and  C_11 
REMARK    4  A    between atoms: O_4  and  C_12 
REMARK    5  A    between atoms: O_5  and  C_13 
REMARK    6  A    between atoms: C_7  and  C_13 
ROOT
HETATM    1  C   UNK N   1     -29.169  18.669  -9.276  0.00  0.00     0.147 C 
HETATM    2  C   UNK N   1     -30.260  17.685  -8.772  0.00  0.00     0.083 C 
HETATM    3  C   UNK N   1     -28.640  19.496  -8.077  0.00  0.00     0.083 C 
HETATM    4  C   UNK N   1     -31.410  18.401  -8.029  0.00  0.00     0.152 C 
HETATM    5  C   UNK N   1     -29.758  20.223  -7.301  0.00  0.00     0.152 C 
HETATM    6  C   UNK N   1     -30.845  19.216  -6.843  0.00  0.00     0.175 C 
ENDROOT
BRANCH   1   7
HETATM    7  O   UNK N   1     -29.697  19.544 -10.247  0.00  0.00    -0.379 OA
HETATM    8  H   UNK N   1     -29.329  19.284 -11.133  0.00  0.00     0.211 HD
ENDBRANCH   1   7
BRANCH   1   9
HETATM    9  C   UNK N   1     -28.014  17.881  -9.868  0.00  0.00     0.176 C 
HETATM   10  O   UNK N   1     -27.137  18.444 -10.504  0.00  0.00    -0.648 OA
BRANCH   9  11
HETATM   11  O   UNK N   1     -27.959  16.541  -9.689  0.00  0.00    -0.774 OA
HETATM   12  H   UNK N   1     -28.257  15.930 -10.375  0.00  0.00     0.167 HD
ENDBRANCH   9  11
ENDBRANCH   1   9
BRANCH   4  13
HETATM   13  O   UNK N   1     -32.320  17.452  -7.532  0.00  0.00    -0.393 OA
HETATM   14  H   UNK N   1     -32.026  16.564  -7.862  0.00  0.00     0.210 HD
ENDBRANCH   4  13
BRANCH   5  15
HETATM   15  O   UNK N   1     -30.286  21.312  -8.023  0.00  0.00    -0.393 OA
HETATM   16  H   UNK N   1     -29.841  22.147  -7.743  0.00  0.00     0.210 HD
ENDBRANCH   5  15
BRANCH   6  17
HETATM   17  O   UNK N   1     -31.894  19.884  -6.188  0.00  0.00    -0.390 OA
HETATM   18  H   UNK N   1     -32.225  20.584  -6.810  0.00  0.00     0.210 HD
ENDBRANCH   6  17
TORSDOF 6
ENDMDL
MODEL 8
REMARK VINA RESULT:      -4.7      3.652      5.163
REMARK  6 active torsions:
REMARK  status: ('A' for Active; 'I' for Inactive)
REMARK    1  A    between atoms: O_1  and  C_7 
REMARK    2  A    between atoms: O_2  and  C_10 
REMARK    3  A    between atoms: O_3  and  C_11 
REMARK    4  A    between atoms: O_4  and  C_12 
REMARK    5  A    between atoms: O_5  and  C_13 
REMARK    6  A    between atoms: C_7  and  C_13 
ROOT
HETATM    1  C   UNK N   1     -36.980  -4.247  -8.801  0.00  0.00     0.147 C 
HETATM    2  C   UNK N   1     -37.178  -5.747  -8.453  0.00  0.00     0.083 C 
HETATM    3  C   UNK N   1     -38.367  -3.582  -8.989  0.00  0.00     0.083 C 
HETATM    4  C   UNK N   1     -38.025  -6.495  -9.508  0.00  0.00     0.152 C 
HETATM    5  C   UNK N   1     -39.249  -4.303 -10.030  0.00  0.00     0.152 C 
HETATM    6  C   UNK N   1     -39.398  -5.804  -9.670  0.00  0.00     0.175 C 
ENDROOT
BRANCH   1   7
HETATM    7  O   UNK N   1     -36.232  -4.104  -9.988  0.00  0.00    -0.379 OA
HETATM    8  H   UNK N   1     -36.824  -4.320 -10.756  0.00  0.00     0.211 HD
ENDBRANCH   1   7
BRANCH   1   9
HETATM    9  C   UNK N   1     -36.263  -3.554  -7.656  0.00  0.00     0.176 C 
HETATM   10  O   UNK N   1     -36.394  -3.949  -6.509  0.00  0.00    -0.648 OA
BRANCH   9  11
HETATM   11  O   UNK N   1     -35.473  -2.485  -7.912  0.00  0.00    -0.774 OA
HETATM   12  H   UNK N   1     -34.510  -2.546  -7.850  0.00  0.00     0.167 HD
ENDBRANCH   9  11
ENDBRANCH   1   9
BRANCH   4  13
HETATM   13  O   UNK N   1     -38.233  -7.822  -9.096  0.00  0.00    -0.393 OA
HETATM   14  H   UNK N   1     -37.689  -7.965  -8.279  0.00  0.00     0.210 HD
ENDBRANCH   4  13
BRANCH   5  15
HETATM   15  O   UNK N   1     -38.795  -4.095 -11.348  0.00  0.00    -0.393 OA
HETATM   16  H   UNK N   1     -39.555  -3.862 -11.931  0.00  0.00     0.210 HD
ENDBRANCH   5  15
BRANCH   6  17
HETATM   17  O   UNK N   1     -40.151  -6.475 -10.648  0.00  0.00    -0.390 OA
HETATM   18  H   UNK N   1     -39.507  -6.846 -11.306  0.00  0.00     0.210 HD
ENDBRANCH   6  17
TORSDOF 6
ENDMDL
MODEL 9
REMARK VINA RESULT:      -4.7      4.377      6.557
REMARK  6 active torsions:
REMARK  status: ('A' for Active; 'I' for Inactive)
REMARK    1  A    between atoms: O_1  and  C_7 
REMARK    2  A    between atoms: O_2  and  C_10 
REMARK    3  A    between atoms: O_3  and  C_11 
REMARK    4  A    between atoms: O_4  and  C_12 
REMARK    5  A    between atoms: O_5  and  C_13 
REMARK    6  A    between atoms: C_7  and  C_13 
ROOT
HETATM    1  C   UNK N   1     -37.969  -5.448  -9.941  0.00  0.00     0.147 C 
HETATM    2  C   UNK N   1     -38.291  -5.021  -8.483  0.00  0.00     0.083 C 
HETATM    3  C   UNK N   1     -38.170  -4.233 -10.881  0.00  0.00     0.083 C 
HETATM    4  C   UNK N   1     -39.709  -4.424  -8.338  0.00  0.00     0.152 C 
HETATM    5  C   UNK N   1     -39.573  -3.601 -10.763  0.00  0.00     0.152 C 
HETATM    6  C   UNK N   1     -39.874  -3.218  -9.290  0.00  0.00     0.175 C 
ENDROOT
BRANCH   1   7
HETATM    7  O   UNK N   1     -38.815  -6.499 -10.352  0.00  0.00    -0.379 OA
HETATM    8  H   UNK N   1     -39.269  -6.865  -9.547  0.00  0.00     0.211 HD
ENDBRANCH   1   7
BRANCH   1   9
HETATM    9  C   UNK N   1     -36.519  -5.892 -10.028  0.00  0.00     0.176 C 
HETATM   10  O   UNK N   1     -35.636  -5.244  -9.490  0.00  0.00    -0.648 OA
BRANCH   9  11
HETATM   11  O   UNK N   1     -36.205  -7.017 -10.712  0.00  0.00    -0.774 OA
HETATM   12  H   UNK N   1     -36.158  -7.021 -11.677  0.00  0.00     0.167 HD
ENDBRANCH   9  11
ENDBRANCH   1   9
BRANCH   4  13
HETATM   13  O   UNK N   1     -39.908  -3.987  -7.017  0.00  0.00    -0.393 OA
HETATM   14  H   UNK N   1     -40.405  -4.703  -6.543  0.00  0.00     0.210 HD
ENDBRANCH   4  13
BRANCH   5  15
HETATM   15  O   UNK N   1     -40.572  -4.411 -11.337  0.00  0.00    -0.393 OA
HETATM   16  H   UNK N   1     -41.348  -4.466 -10.730  0.00  0.00     0.210 HD
ENDBRANCH   5  15
BRANCH   6  17
HETATM   17  O   UNK N   1     -41.173  -2.696  -9.171  0.00  0.00    -0.390 OA
HETATM   18  H   UNK N   1     -41.275  -2.385  -8.233  0.00  0.00     0.210 HD
ENDBRANCH   6  17
TORSDOF 6
ENDMDL
