MODEL 1
REMARK VINA RESULT:      -8.1      0.000      0.000
REMARK  6 active torsions:
REMARK  status: ('A' for Active; 'I' for Inactive)
REMARK    1  A    between atoms: O_2  and  C_7 
REMARK    2  A    between atoms: O_3  and  C_13 
REMARK    3  A    between atoms: O_4  and  C_18 
REMARK    4  A    between atoms: O_5  and  C_19 
REMARK    5  A    between atoms: O_6  and  C_21 
REMARK    6  A    between atoms: C_8  and  C_12 
ROOT
HETATM    1  O   UNK N   1     -17.086  20.723 -10.622  0.00  0.00    -0.338 OA
HETATM    2  C   UNK N   1     -18.421  22.478  -9.714  0.00  0.00     0.156 C 
HETATM    3  C   UNK N   1     -18.285  21.394 -10.793  0.00  0.00     0.191 C 
HETATM    4  C   UNK N   1     -18.406  21.798  -8.332  0.00  0.00     0.079 C 
HETATM    5  C   UNK N   1     -17.316  20.748  -8.231  0.00  0.00     0.011 A 
HETATM    6  C   UNK N   1     -16.692  20.274  -9.407  0.00  0.00     0.081 A 
HETATM    7  C   UNK N   1     -16.939  20.220  -6.985  0.00  0.00     0.077 A 
HETATM    8  C   UNK N   1     -15.676  19.320  -9.328  0.00  0.00     0.074 A 
HETATM    9  C   UNK N   1     -15.923  19.250  -6.919  0.00  0.00     0.073 A 
HETATM   10  C   UNK N   1     -15.291  18.806  -8.084  0.00  0.00     0.071 A 
ENDROOT
BRANCH   3  11
HETATM   11  C   UNK N   1     -18.375  21.969 -12.180  0.00  0.00    -0.024 A 
HETATM   12  C   UNK N   1     -17.703  21.333 -13.231  0.00  0.00     0.049 A 
HETATM   13  C   UNK N   1     -17.783  21.838 -14.533  0.00  0.00     0.099 A 
HETATM   14  C   UNK N   1     -18.539  22.992 -14.789  0.00  0.00     0.098 A 
HETATM   15  C   UNK N   1     -19.214  23.631 -13.739  0.00  0.00     0.040 A 
HETATM   16  C   UNK N   1     -19.136  23.123 -12.441  0.00  0.00     0.013 A 
BRANCH  13  17
HETATM   17  O   UNK N   1     -17.138  21.216 -15.540  0.00  0.00    -0.358 OA
HETATM   18  H   UNK N   1     -17.391  21.356 -16.465  0.00  0.00     0.218 HD
ENDBRANCH  13  17
BRANCH  14  19
HETATM   19  O   UNK N   1     -18.615  23.480 -16.044  0.00  0.00    -0.358 OA
HETATM   20  H   UNK N   1     -19.141  24.266 -16.250  0.00  0.00     0.218 HD
ENDBRANCH  14  19
ENDBRANCH   3  11
BRANCH   2  21
HETATM   21  O   UNK N   1     -17.338  23.373  -9.795  0.00  0.00    -0.392 OA
HETATM   22  H   UNK N   1     -16.827  23.286  -8.948  0.00  0.00     0.210 HD
ENDBRANCH   2  21
BRANCH   7  23
HETATM   23  O   UNK N   1     -17.543  20.647  -5.857  0.00  0.00    -0.360 OA
HETATM   24  H   UNK N   1     -18.206  21.352  -5.872  0.00  0.00     0.217 HD
ENDBRANCH   7  23
BRANCH  10  25
HETATM   25  O   UNK N   1     -14.319  17.874  -8.005  0.00  0.00    -0.361 OA
HETATM   26  H   UNK N   1     -14.435  16.990  -8.380  0.00  0.00     0.217 HD
ENDBRANCH  10  25
TORSDOF 6
ENDMDL
MODEL 2
REMARK VINA RESULT:      -7.3      1.319      2.846
REMARK  6 active torsions:
REMARK  status: ('A' for Active; 'I' for Inactive)
REMARK    1  A    between atoms: O_2  and  C_7 
REMARK    2  A    between atoms: O_3  and  C_13 
REMARK    3  A    between atoms: O_4  and  C_18 
REMARK    4  A    between atoms: O_5  and  C_19 
REMARK    5  A    between atoms: O_6  and  C_21 
REMARK    6  A    between atoms: C_8  and  C_12 
ROOT
HETATM    1  O   UNK N   1     -18.408  22.246 -10.787  0.00  0.00    -0.338 OA
HETATM    2  C   UNK N   1     -17.310  20.806 -12.338  0.00  0.00     0.156 C 
HETATM    3  C   UNK N   1     -17.681  22.248 -11.964  0.00  0.00     0.191 C 
HETATM    4  C   UNK N   1     -16.451  20.213 -11.204  0.00  0.00     0.079 C 
HETATM    5  C   UNK N   1     -17.025  20.528  -9.836  0.00  0.00     0.011 A 
HETATM    6  C   UNK N   1     -18.006  21.537  -9.706  0.00  0.00     0.081 A 
HETATM    7  C   UNK N   1     -16.573  19.849  -8.692  0.00  0.00     0.077 A 
HETATM    8  C   UNK N   1     -18.555  21.826  -8.457  0.00  0.00     0.074 A 
HETATM    9  C   UNK N   1     -17.124  20.158  -7.437  0.00  0.00     0.073 A 
HETATM   10  C   UNK N   1     -18.114  21.138  -7.320  0.00  0.00     0.071 A 
ENDROOT
BRANCH   3  11
HETATM   11  C   UNK N   1     -18.453  22.930 -13.061  0.00  0.00    -0.024 A 
HETATM   12  C   UNK N   1     -18.070  22.731 -14.394  0.00  0.00     0.049 A 
HETATM   13  C   UNK N   1     -18.781  23.340 -15.434  0.00  0.00     0.099 A 
HETATM   14  C   UNK N   1     -19.883  24.158 -15.142  0.00  0.00     0.098 A 
HETATM   15  C   UNK N   1     -20.269  24.359 -13.808  0.00  0.00     0.040 A 
HETATM   16  C   UNK N   1     -19.561  23.746 -12.772  0.00  0.00     0.013 A 
BRANCH  13  17
HETATM   17  O   UNK N   1     -18.410  23.138 -16.714  0.00  0.00    -0.358 OA
HETATM   18  H   UNK N   1     -18.706  23.728 -17.425  0.00  0.00     0.218 HD
ENDBRANCH  13  17
BRANCH  14  19
HETATM   19  O   UNK N   1     -20.567  24.746 -16.144  0.00  0.00    -0.358 OA
HETATM   20  H   UNK N   1     -21.033  25.585 -16.014  0.00  0.00     0.218 HD
ENDBRANCH  14  19
ENDBRANCH   3  11
BRANCH   2  21
HETATM   21  O   UNK N   1     -18.477  20.033 -12.480  0.00  0.00    -0.392 OA
HETATM   22  H   UNK N   1     -18.827  19.867 -11.565  0.00  0.00     0.210 HD
ENDBRANCH   2  21
BRANCH   7  23
HETATM   23  O   UNK N   1     -15.620  18.901  -8.801  0.00  0.00    -0.360 OA
HETATM   24  H   UNK N   1     -15.410  18.485  -9.649  0.00  0.00     0.217 HD
ENDBRANCH   7  23
BRANCH  10  25
HETATM   25  O   UNK N   1     -18.632  21.424  -6.108  0.00  0.00    -0.361 OA
HETATM   26  H   UNK N   1     -18.857  22.331  -5.855  0.00  0.00     0.217 HD
ENDBRANCH  10  25
TORSDOF 6
ENDMDL
MODEL 3
REMARK VINA RESULT:      -7.2      1.918      6.952
REMARK  6 active torsions:
REMARK  status: ('A' for Active; 'I' for Inactive)
REMARK    1  A    between atoms: O_2  and  C_7 
REMARK    2  A    between atoms: O_3  and  C_13 
REMARK    3  A    between atoms: O_4  and  C_18 
REMARK    4  A    between atoms: O_5  and  C_19 
REMARK    5  A    between atoms: O_6  and  C_21 
REMARK    6  A    between atoms: C_8  and  C_12 
ROOT
HETATM    1  O   UNK N   1     -18.313  22.732 -12.373  0.00  0.00    -0.338 OA
HETATM    2  C   UNK N   1     -19.744  23.731 -10.747  0.00  0.00     0.156 C 
HETATM    3  C   UNK N   1     -18.326  23.250 -11.090  0.00  0.00     0.191 C 
HETATM    4  C   UNK N   1     -20.143  24.831 -11.750  0.00  0.00     0.079 C 
HETATM    5  C   UNK N   1     -19.783  24.454 -13.175  0.00  0.00     0.011 A 
HETATM    6  C   UNK N   1     -18.883  23.390 -13.410  0.00  0.00     0.081 A 
HETATM    7  C   UNK N   1     -20.311  25.169 -14.263  0.00  0.00     0.077 A 
HETATM    8  C   UNK N   1     -18.556  23.022 -14.715  0.00  0.00     0.074 A 
HETATM    9  C   UNK N   1     -19.964  24.797 -15.573  0.00  0.00     0.073 A 
HETATM   10  C   UNK N   1     -19.095  23.725 -15.799  0.00  0.00     0.071 A 
ENDROOT
BRANCH   3  11
HETATM   11  C   UNK N   1     -17.827  22.231 -10.103  0.00  0.00    -0.024 A 
HETATM   12  C   UNK N   1     -16.806  21.351 -10.483  0.00  0.00     0.049 A 
HETATM   13  C   UNK N   1     -16.313  20.404  -9.579  0.00  0.00     0.099 A 
HETATM   14  C   UNK N   1     -16.846  20.331  -8.283  0.00  0.00     0.098 A 
HETATM   15  C   UNK N   1     -17.868  21.210  -7.899  0.00  0.00     0.040 A 
HETATM   16  C   UNK N   1     -18.356  22.158  -8.801  0.00  0.00     0.013 A 
BRANCH  13  17
HETATM   17  O   UNK N   1     -15.326  19.564  -9.952  0.00  0.00    -0.358 OA
HETATM   18  H   UNK N   1     -14.444  19.613  -9.553  0.00  0.00     0.218 HD
ENDBRANCH  13  17
BRANCH  14  19
HETATM   19  O   UNK N   1     -16.372  19.417  -7.413  0.00  0.00    -0.358 OA
HETATM   20  H   UNK N   1     -16.938  18.719  -7.053  0.00  0.00     0.218 HD
ENDBRANCH  14  19
ENDBRANCH   3  11
BRANCH   2  21
HETATM   21  O   UNK N   1     -20.652  22.662 -10.857  0.00  0.00    -0.392 OA
HETATM   22  H   UNK N   1     -21.050  22.527  -9.957  0.00  0.00     0.210 HD
ENDBRANCH   2  21
BRANCH   7  23
HETATM   23  O   UNK N   1     -21.153  26.201 -14.050  0.00  0.00    -0.360 OA
HETATM   24  H   UNK N   1     -21.156  26.981 -14.624  0.00  0.00     0.217 HD
ENDBRANCH   7  23
BRANCH  10  25
HETATM   25  O   UNK N   1     -18.771  23.381 -17.062  0.00  0.00    -0.361 OA
HETATM   26  H   UNK N   1     -18.291  22.564 -17.256  0.00  0.00     0.217 HD
ENDBRANCH  10  25
TORSDOF 6
ENDMDL
MODEL 4
REMARK VINA RESULT:      -7.1      2.534      7.700
REMARK  6 active torsions:
REMARK  status: ('A' for Active; 'I' for Inactive)
REMARK    1  A    between atoms: O_2  and  C_7 
REMARK    2  A    between atoms: O_3  and  C_13 
REMARK    3  A    between atoms: O_4  and  C_18 
REMARK    4  A    between atoms: O_5  and  C_19 
REMARK    5  A    between atoms: O_6  and  C_21 
REMARK    6  A    between atoms: C_8  and  C_12 
ROOT
HETATM    1  O   UNK N   1     -18.988  23.274 -14.302  0.00  0.00    -0.338 OA
HETATM    2  C   UNK N   1     -19.996  24.415 -12.466  0.00  0.00     0.156 C 
HETATM    3  C   UNK N   1     -18.728  23.758 -13.031  0.00  0.00     0.191 C 
HETATM    4  C   UNK N   1     -20.394  25.583 -13.389  0.00  0.00     0.079 C 
HETATM    5  C   UNK N   1     -20.318  25.196 -14.854  0.00  0.00     0.011 A 
HETATM    6  C   UNK N   1     -19.620  24.028 -15.232  0.00  0.00     0.081 A 
HETATM    7  C   UNK N   1     -20.910  26.001 -15.842  0.00  0.00     0.077 A 
HETATM    8  C   UNK N   1     -19.555  23.651 -16.574  0.00  0.00     0.074 A 
HETATM    9  C   UNK N   1     -20.827  25.618 -17.192  0.00  0.00     0.073 A 
HETATM   10  C   UNK N   1     -20.158  24.446 -17.556  0.00  0.00     0.071 A 
ENDROOT
BRANCH   3  11
HETATM   11  C   UNK N   1     -18.223  22.657 -12.139  0.00  0.00    -0.024 A 
HETATM   12  C   UNK N   1     -18.004  21.384 -12.679  0.00  0.00     0.049 A 
HETATM   13  C   UNK N   1     -17.519  20.346 -11.875  0.00  0.00     0.099 A 
HETATM   14  C   UNK N   1     -17.253  20.580 -10.518  0.00  0.00     0.098 A 
HETATM   15  C   UNK N   1     -17.471  21.855  -9.974  0.00  0.00     0.040 A 
HETATM   16  C   UNK N   1     -17.950  22.890 -10.779  0.00  0.00     0.013 A 
BRANCH  13  17
HETATM   17  O   UNK N   1     -17.306  19.124 -12.405  0.00  0.00    -0.358 OA
HETATM   18  H   UNK N   1     -16.430  18.859 -12.725  0.00  0.00     0.218 HD
ENDBRANCH  13  17
BRANCH  14  19
HETATM   19  O   UNK N   1     -16.787  19.580  -9.743  0.00  0.00    -0.358 OA
HETATM   20  H   UNK N   1     -17.288  18.761  -9.620  0.00  0.00     0.218 HD
ENDBRANCH  14  19
ENDBRANCH   3  11
BRANCH   2  21
HETATM   21  O   UNK N   1     -21.046  23.479 -12.432  0.00  0.00    -0.392 OA
HETATM   22  H   UNK N   1     -20.818  22.766 -13.084  0.00  0.00     0.210 HD
ENDBRANCH   2  21
BRANCH   7  23
HETATM   23  O   UNK N   1     -21.559  27.131 -15.495  0.00  0.00    -0.360 OA
HETATM   24  H   UNK N   1     -21.281  27.998 -15.822  0.00  0.00     0.217 HD
ENDBRANCH   7  23
BRANCH  10  25
HETATM   25  O   UNK N   1     -20.087  24.092 -18.856  0.00  0.00    -0.361 OA
HETATM   26  H   UNK N   1     -19.684  23.257 -19.131  0.00  0.00     0.217 HD
ENDBRANCH  10  25
TORSDOF 6
ENDMDL
MODEL 5
REMARK VINA RESULT:      -7.0     31.819     32.733
REMARK  6 active torsions:
REMARK  status: ('A' for Active; 'I' for Inactive)
REMARK    1  A    between atoms: O_2  and  C_7 
REMARK    2  A    between atoms: O_3  and  C_13 
REMARK    3  A    between atoms: O_4  and  C_18 
REMARK    4  A    between atoms: O_5  and  C_19 
REMARK    5  A    between atoms: O_6  and  C_21 
REMARK    6  A    between atoms: C_8  and  C_12 
ROOT
HETATM    1  O   UNK N   1     -38.473  -3.549  -6.508  0.00  0.00    -0.338 OA
HETATM    2  C   UNK N   1     -36.232  -2.733  -6.507  0.00  0.00     0.156 C 
HETATM    3  C   UNK N   1     -37.448  -3.146  -7.348  0.00  0.00     0.191 C 
HETATM    4  C   UNK N   1     -36.642  -1.559  -5.598  0.00  0.00     0.079 C 
HETATM    5  C   UNK N   1     -37.986  -1.799  -4.937  0.00  0.00     0.011 A 
HETATM    6  C   UNK N   1     -38.835  -2.816  -5.429  0.00  0.00     0.081 A 
HETATM    7  C   UNK N   1     -38.410  -1.004  -3.858  0.00  0.00     0.077 A 
HETATM    8  C   UNK N   1     -40.067  -3.059  -4.821  0.00  0.00     0.074 A 
HETATM    9  C   UNK N   1     -39.659  -1.250  -3.262  0.00  0.00     0.073 A 
HETATM   10  C   UNK N   1     -40.481  -2.276  -3.737  0.00  0.00     0.071 A 
ENDROOT
BRANCH   3  11
HETATM   11  C   UNK N   1     -37.108  -4.237  -8.327  0.00  0.00    -0.024 A 
HETATM   12  C   UNK N   1     -37.829  -5.437  -8.294  0.00  0.00     0.049 A 
HETATM   13  C   UNK N   1     -37.543  -6.461  -9.203  0.00  0.00     0.099 A 
HETATM   14  C   UNK N   1     -36.525  -6.288 -10.153  0.00  0.00     0.098 A 
HETATM   15  C   UNK N   1     -35.802  -5.087 -10.189  0.00  0.00     0.040 A 
HETATM   16  C   UNK N   1     -36.091  -4.064  -9.284  0.00  0.00     0.013 A 
BRANCH  13  17
HETATM   17  O   UNK N   1     -38.246  -7.611  -9.168  0.00  0.00    -0.358 OA
HETATM   18  H   UNK N   1     -39.203  -7.614  -9.018  0.00  0.00     0.218 HD
ENDBRANCH  13  17
BRANCH  14  19
HETATM   19  O   UNK N   1     -36.249  -7.275 -11.029  0.00  0.00    -0.358 OA
HETATM   20  H   UNK N   1     -35.341  -7.571 -11.187  0.00  0.00     0.218 HD
ENDBRANCH  14  19
ENDBRANCH   3  11
BRANCH   2  21
HETATM   21  O   UNK N   1     -35.817  -3.811  -5.703  0.00  0.00    -0.392 OA
HETATM   22  H   UNK N   1     -34.825  -3.836  -5.744  0.00  0.00     0.210 HD
ENDBRANCH   2  21
BRANCH   7  23
HETATM   23  O   UNK N   1     -37.619  -0.016  -3.394  0.00  0.00    -0.360 OA
HETATM   24  H   UNK N   1     -37.297   0.692  -3.971  0.00  0.00     0.217 HD
ENDBRANCH   7  23
BRANCH  10  25
HETATM   25  O   UNK N   1     -41.677  -2.499  -3.155  0.00  0.00    -0.361 OA
HETATM   26  H   UNK N   1     -42.306  -1.780  -2.999  0.00  0.00     0.217 HD
ENDBRANCH  10  25
TORSDOF 6
ENDMDL
MODEL 6
REMARK VINA RESULT:      -7.0      3.135      8.395
REMARK  6 active torsions:
REMARK  status: ('A' for Active; 'I' for Inactive)
REMARK    1  A    between atoms: O_2  and  C_7 
REMARK    2  A    between atoms: O_3  and  C_13 
REMARK    3  A    between atoms: O_4  and  C_18 
REMARK    4  A    between atoms: O_5  and  C_19 
REMARK    5  A    between atoms: O_6  and  C_21 
REMARK    6  A    between atoms: C_8  and  C_12 
ROOT
HETATM    1  O   UNK N   1     -17.754  19.871  -6.666  0.00  0.00    -0.338 OA
HETATM    2  C   UNK N   1     -15.915  18.352  -6.640  0.00  0.00     0.156 C 
HETATM    3  C   UNK N   1     -17.403  18.574  -6.331  0.00  0.00     0.191 C 
HETATM    4  C   UNK N   1     -15.691  18.571  -8.149  0.00  0.00     0.079 C 
HETATM    5  C   UNK N   1     -16.402  19.813  -8.651  0.00  0.00     0.011 A 
HETATM    6  C   UNK N   1     -17.402  20.416  -7.854  0.00  0.00     0.081 A 
HETATM    7  C   UNK N   1     -16.099  20.356  -9.911  0.00  0.00     0.077 A 
HETATM    8  C   UNK N   1     -18.052  21.569  -8.296  0.00  0.00     0.074 A 
HETATM    9  C   UNK N   1     -16.770  21.510 -10.351  0.00  0.00     0.073 A 
HETATM   10  C   UNK N   1     -17.739  22.117  -9.545  0.00  0.00     0.071 A 
ENDROOT
BRANCH   3  11
HETATM   11  C   UNK N   1     -17.722  18.297  -4.887  0.00  0.00    -0.024 A 
HETATM   12  C   UNK N   1     -17.420  17.040  -4.348  0.00  0.00     0.049 A 
HETATM   13  C   UNK N   1     -17.692  16.761  -3.004  0.00  0.00     0.099 A 
HETATM   14  C   UNK N   1     -18.273  17.745  -2.190  0.00  0.00     0.098 A 
HETATM   15  C   UNK N   1     -18.576  19.005  -2.727  0.00  0.00     0.040 A 
HETATM   16  C   UNK N   1     -18.300  19.283  -4.067  0.00  0.00     0.013 A 
BRANCH  13  17
HETATM   17  O   UNK N   1     -17.392  15.551  -2.491  0.00  0.00    -0.358 OA
HETATM   18  H   UNK N   1     -16.639  15.427  -1.894  0.00  0.00     0.218 HD
ENDBRANCH  13  17
BRANCH  14  19
HETATM   19  O   UNK N   1     -18.536  17.476  -0.896  0.00  0.00    -0.358 OA
HETATM   20  H   UNK N   1     -17.988  17.834  -0.183  0.00  0.00     0.218 HD
ENDBRANCH  14  19
ENDBRANCH   3  11
BRANCH   2  21
HETATM   21  O   UNK N   1     -15.133  19.276  -5.923  0.00  0.00    -0.392 OA
HETATM   22  H   UNK N   1     -14.232  19.276  -6.339  0.00  0.00     0.210 HD
ENDBRANCH   2  21
BRANCH   7  23
HETATM   23  O   UNK N   1     -15.163  19.776 -10.690  0.00  0.00    -0.360 OA
HETATM   24  H   UNK N   1     -14.292  19.536 -10.345  0.00  0.00     0.217 HD
ENDBRANCH   7  23
BRANCH  10  25
HETATM   25  O   UNK N   1     -18.375  23.223  -9.982  0.00  0.00    -0.361 OA
HETATM   26  H   UNK N   1     -18.821  23.244 -10.840  0.00  0.00     0.217 HD
ENDBRANCH  10  25
TORSDOF 6
ENDMDL
MODEL 7
REMARK VINA RESULT:      -6.9      3.205      8.419
REMARK  6 active torsions:
REMARK  status: ('A' for Active; 'I' for Inactive)
REMARK    1  A    between atoms: O_2  and  C_7 
REMARK    2  A    between atoms: O_3  and  C_13 
REMARK    3  A    between atoms: O_4  and  C_18 
REMARK    4  A    between atoms: O_5  and  C_19 
REMARK    5  A    between atoms: O_6  and  C_21 
REMARK    6  A    between atoms: C_8  and  C_12 
ROOT
HETATM    1  O   UNK N   1     -16.045  18.878  -6.648  0.00  0.00    -0.338 OA
HETATM    2  C   UNK N   1     -17.993  19.621  -5.491  0.00  0.00     0.156 C 
HETATM    3  C   UNK N   1     -16.490  19.314  -5.413  0.00  0.00     0.191 C 
HETATM    4  C   UNK N   1     -18.212  20.731  -6.537  0.00  0.00     0.079 C 
HETATM    5  C   UNK N   1     -17.413  20.480  -7.802  0.00  0.00     0.011 A 
HETATM    6  C   UNK N   1     -16.364  19.533  -7.789  0.00  0.00     0.081 A 
HETATM    7  C   UNK N   1     -17.684  21.198  -8.978  0.00  0.00     0.077 A 
HETATM    8  C   UNK N   1     -15.632  19.280  -8.949  0.00  0.00     0.074 A 
HETATM    9  C   UNK N   1     -16.931  20.944 -10.138  0.00  0.00     0.073 A 
HETATM   10  C   UNK N   1     -15.913  19.986 -10.125  0.00  0.00     0.071 A 
ENDROOT
BRANCH   3  11
HETATM   11  C   UNK N   1     -16.181  18.296  -4.349  0.00  0.00    -0.024 A 
HETATM   12  C   UNK N   1     -15.362  17.205  -4.664  0.00  0.00     0.049 A 
HETATM   13  C   UNK N   1     -15.046  16.251  -3.689  0.00  0.00     0.099 A 
HETATM   14  C   UNK N   1     -15.555  16.387  -2.389  0.00  0.00     0.098 A 
HETATM   15  C   UNK N   1     -16.375  17.479  -2.071  0.00  0.00     0.040 A 
HETATM   16  C   UNK N   1     -16.686  18.431  -3.043  0.00  0.00     0.013 A 
BRANCH  13  17
HETATM   17  O   UNK N   1     -14.251  15.207  -3.999  0.00  0.00    -0.358 OA
HETATM   18  H   UNK N   1     -14.057  14.511  -3.352  0.00  0.00     0.218 HD
ENDBRANCH  13  17
BRANCH  14  19
HETATM   19  O   UNK N   1     -15.251  15.467  -1.450  0.00  0.00    -0.358 OA
HETATM   20  H   UNK N   1     -15.857  15.270  -0.721  0.00  0.00     0.218 HD
ENDBRANCH  14  19
ENDBRANCH   3  11
BRANCH   2  21
HETATM   21  O   UNK N   1     -18.696  18.470  -5.891  0.00  0.00    -0.392 OA
HETATM   22  H   UNK N   1     -18.895  17.951  -5.067  0.00  0.00     0.210 HD
ENDBRANCH   2  21
BRANCH   7  23
HETATM   23  O   UNK N   1     -18.668  22.121  -8.996  0.00  0.00    -0.360 OA
HETATM   24  H   UNK N   1     -18.877  22.626  -9.795  0.00  0.00     0.217 HD
ENDBRANCH   7  23
BRANCH  10  25
HETATM   25  O   UNK N   1     -15.199  19.755 -11.246  0.00  0.00    -0.361 OA
HETATM   26  H   UNK N   1     -14.829  18.881 -11.438  0.00  0.00     0.217 HD
ENDBRANCH  10  25
TORSDOF 6
ENDMDL
MODEL 8
REMARK VINA RESULT:      -6.9     31.513     32.613
REMARK  6 active torsions:
REMARK  status: ('A' for Active; 'I' for Inactive)
REMARK    1  A    between atoms: O_2  and  C_7 
REMARK    2  A    between atoms: O_3  and  C_13 
REMARK    3  A    between atoms: O_4  and  C_18 
REMARK    4  A    between atoms: O_5  and  C_19 
REMARK    5  A    between atoms: O_6  and  C_21 
REMARK    6  A    between atoms: C_8  and  C_12 
ROOT
HETATM    1  O   UNK N   1     -38.839  -3.392  -6.901  0.00  0.00    -0.338 OA
HETATM    2  C   UNK N   1     -36.831  -2.106  -6.945  0.00  0.00     0.156 C 
HETATM    3  C   UNK N   1     -37.868  -2.841  -6.083  0.00  0.00     0.191 C 
HETATM    4  C   UNK N   1     -36.180  -3.125  -7.900  0.00  0.00     0.079 C 
HETATM    5  C   UNK N   1     -37.210  -4.032  -8.546  0.00  0.00     0.011 A 
HETATM    6  C   UNK N   1     -38.515  -4.101  -8.008  0.00  0.00     0.081 A 
HETATM    7  C   UNK N   1     -36.874  -4.827  -9.655  0.00  0.00     0.077 A 
HETATM    8  C   UNK N   1     -39.477  -4.918  -8.602  0.00  0.00     0.074 A 
HETATM    9  C   UNK N   1     -37.848  -5.656 -10.236  0.00  0.00     0.073 A 
HETATM   10  C   UNK N   1     -39.145  -5.698  -9.716  0.00  0.00     0.071 A 
ENDROOT
BRANCH   3  11
HETATM   11  C   UNK N   1     -38.493  -1.931  -5.061  0.00  0.00    -0.024 A 
HETATM   12  C   UNK N   1     -37.999  -0.629  -4.910  0.00  0.00     0.049 A 
HETATM   13  C   UNK N   1     -38.572   0.243  -3.978  0.00  0.00     0.099 A 
HETATM   14  C   UNK N   1     -39.647  -0.188  -3.187  0.00  0.00     0.098 A 
HETATM   15  C   UNK N   1     -40.145  -1.491  -3.336  0.00  0.00     0.040 A 
HETATM   16  C   UNK N   1     -39.575  -2.358  -4.270  0.00  0.00     0.013 A 
BRANCH  13  17
HETATM   17  O   UNK N   1     -38.094   1.497  -3.843  0.00  0.00    -0.358 OA
HETATM   18  H   UNK N   1     -38.296   2.187  -4.492  0.00  0.00     0.218 HD
ENDBRANCH  13  17
BRANCH  14  19
HETATM   19  O   UNK N   1     -40.199   0.652  -2.288  0.00  0.00    -0.358 OA
HETATM   20  H   UNK N   1     -39.797   1.510  -2.085  0.00  0.00     0.218 HD
ENDBRANCH  14  19
ENDBRANCH   3  11
BRANCH   2  21
HETATM   21  O   UNK N   1     -37.463  -1.105  -7.705  0.00  0.00    -0.392 OA
HETATM   22  H   UNK N   1     -38.405  -1.390  -7.833  0.00  0.00     0.210 HD
ENDBRANCH   2  21
BRANCH   7  23
HETATM   23  O   UNK N   1     -35.625  -4.787 -10.162  0.00  0.00    -0.360 OA
HETATM   24  H   UNK N   1     -34.859  -5.090  -9.654  0.00  0.00     0.217 HD
ENDBRANCH   7  23
BRANCH  10  25
HETATM   25  O   UNK N   1     -40.068  -6.500 -10.284  0.00  0.00    -0.361 OA
HETATM   26  H   UNK N   1     -41.015  -6.327 -10.190  0.00  0.00     0.217 HD
ENDBRANCH  10  25
TORSDOF 6
ENDMDL
MODEL 9
REMARK VINA RESULT:      -6.8     25.376     28.003
REMARK  6 active torsions:
REMARK  status: ('A' for Active; 'I' for Inactive)
REMARK    1  A    between atoms: O_2  and  C_7 
REMARK    2  A    between atoms: O_3  and  C_13 
REMARK    3  A    between atoms: O_4  and  C_18 
REMARK    4  A    between atoms: O_5  and  C_19 
REMARK    5  A    between atoms: O_6  and  C_21 
REMARK    6  A    between atoms: C_8  and  C_12 
ROOT
HETATM    1  O   UNK N   1     -30.716  45.290  -8.685  0.00  0.00    -0.338 OA
HETATM    2  C   UNK N   1     -32.544  44.665  -7.287  0.00  0.00     0.156 C 
HETATM    3  C   UNK N   1     -31.068  44.442  -7.649  0.00  0.00     0.191 C 
HETATM    4  C   UNK N   1     -32.721  46.128  -6.836  0.00  0.00     0.079 C 
HETATM    5  C   UNK N   1     -32.004  47.094  -7.759  0.00  0.00     0.011 A 
HETATM    6  C   UNK N   1     -31.034  46.606  -8.664  0.00  0.00     0.081 A 
HETATM    7  C   UNK N   1     -32.271  48.472  -7.705  0.00  0.00     0.077 A 
HETATM    8  C   UNK N   1     -30.379  47.481  -9.530  0.00  0.00     0.074 A 
HETATM    9  C   UNK N   1     -31.595  49.346  -8.574  0.00  0.00     0.073 A 
HETATM   10  C   UNK N   1     -30.657  48.852  -9.486  0.00  0.00     0.071 A 
ENDROOT
BRANCH   3  11
HETATM   11  C   UNK N   1     -30.793  43.011  -8.021  0.00  0.00    -0.024 A 
HETATM   12  C   UNK N   1     -31.020  42.002  -7.077  0.00  0.00     0.049 A 
HETATM   13  C   UNK N   1     -30.787  40.661  -7.402  0.00  0.00     0.099 A 
HETATM   14  C   UNK N   1     -30.320  40.324  -8.682  0.00  0.00     0.098 A 
HETATM   15  C   UNK N   1     -30.093  41.332  -9.630  0.00  0.00     0.040 A 
HETATM   16  C   UNK N   1     -30.330  42.668  -9.305  0.00  0.00     0.013 A 
BRANCH  13  17
HETATM   17  O   UNK N   1     -31.013  39.695  -6.489  0.00  0.00    -0.358 OA
HETATM   18  H   UNK N   1     -30.312  39.387  -5.895  0.00  0.00     0.218 HD
ENDBRANCH  13  17
BRANCH  14  19
HETATM   19  O   UNK N   1     -30.095  39.032  -8.995  0.00  0.00    -0.358 OA
HETATM   20  H   UNK N   1     -29.209  38.645  -8.939  0.00  0.00     0.218 HD
ENDBRANCH  14  19
ENDBRANCH   3  11
BRANCH   2  21
HETATM   21  O   UNK N   1     -33.354  44.431  -8.413  0.00  0.00    -0.392 OA
HETATM   22  H   UNK N   1     -34.038  43.763  -8.143  0.00  0.00     0.210 HD
ENDBRANCH   2  21
BRANCH   7  23
HETATM   23  O   UNK N   1     -33.178  48.953  -6.830  0.00  0.00    -0.360 OA
HETATM   24  H   UNK N   1     -32.939  49.609  -6.159  0.00  0.00     0.217 HD
ENDBRANCH   7  23
BRANCH  10  25
HETATM   25  O   UNK N   1     -30.015  49.704 -10.313  0.00  0.00    -0.361 OA
HETATM   26  H   UNK N   1     -29.547  49.389 -11.099  0.00  0.00     0.217 HD
ENDBRANCH  10  25
TORSDOF 6
ENDMDL
