MODEL 1
REMARK VINA RESULT:      -8.0      0.000      0.000
REMARK  7 active torsions:
REMARK  status: ('A' for Active; 'I' for Inactive)
REMARK    1  A    between atoms: O_2  and  C_8 
REMARK    2  A    between atoms: O_3  and  C_14 
REMARK    3  A    between atoms: O_4  and  C_19 
REMARK    4  A    between atoms: O_5  and  C_20 
REMARK    5  A    between atoms: O_6  and  C_21 
REMARK    6  A    between atoms: O_7  and  C_22 
REMARK    7  A    between atoms: C_9  and  C_12 
ROOT
HETATM    1  O   UNK N   1     -17.097  20.715 -10.627  0.00  0.00    -0.338 OA
HETATM    2  C   UNK N   1     -18.418  22.483  -9.725  0.00  0.00     0.156 C 
HETATM    3  C   UNK N   1     -18.293  21.391 -10.799  0.00  0.00     0.191 C 
HETATM    4  C   UNK N   1     -18.405  21.808  -8.340  0.00  0.00     0.079 C 
HETATM    5  C   UNK N   1     -17.320  20.753  -8.237  0.00  0.00     0.011 A 
HETATM    6  C   UNK N   1     -16.699  20.270  -9.412  0.00  0.00     0.081 A 
HETATM    7  C   UNK N   1     -16.942  20.227  -6.990  0.00  0.00     0.077 A 
HETATM    8  C   UNK N   1     -15.687  19.315  -9.330  0.00  0.00     0.074 A 
HETATM    9  C   UNK N   1     -15.932  19.254  -6.921  0.00  0.00     0.073 A 
HETATM   10  C   UNK N   1     -15.302  18.803  -8.086  0.00  0.00     0.071 A 
ENDROOT
BRANCH   3  11
HETATM   11  C   UNK N   1     -18.378  21.963 -12.186  0.00  0.00    -0.021 A 
HETATM   12  C   UNK N   1     -17.700  21.330 -13.234  0.00  0.00     0.049 A 
HETATM   13  C   UNK N   1     -17.779  21.834 -14.535  0.00  0.00     0.102 A 
HETATM   14  C   UNK N   1     -18.540  22.986 -14.798  0.00  0.00     0.132 A 
HETATM   15  C   UNK N   1     -19.224  23.625 -13.746  0.00  0.00     0.102 A 
HETATM   16  C   UNK N   1     -19.143  23.110 -12.447  0.00  0.00     0.049 A 
BRANCH  13  17
HETATM   17  O   UNK N   1     -17.128  21.215 -15.542  0.00  0.00    -0.358 OA
HETATM   18  H   UNK N   1     -16.166  21.279 -15.635  0.00  0.00     0.218 HD
ENDBRANCH  13  17
BRANCH  14  19
HETATM   19  O   UNK N   1     -18.606  23.464 -16.058  0.00  0.00    -0.356 OA
HETATM   20  H   UNK N   1     -17.819  23.754 -16.540  0.00  0.00     0.218 HD
ENDBRANCH  14  19
BRANCH  15  21
HETATM   21  O   UNK N   1     -19.959  24.733 -13.988  0.00  0.00    -0.358 OA
HETATM   22  H   UNK N   1     -20.918  24.688 -14.111  0.00  0.00     0.218 HD
ENDBRANCH  15  21
ENDBRANCH   3  11
BRANCH   2  23
HETATM   23  O   UNK N   1     -17.328  23.369  -9.813  0.00  0.00    -0.392 OA
HETATM   24  H   UNK N   1     -16.708  23.000 -10.495  0.00  0.00     0.210 HD
ENDBRANCH   2  23
BRANCH   7  25
HETATM   25  O   UNK N   1     -17.546  20.661  -5.864  0.00  0.00    -0.360 OA
HETATM   26  H   UNK N   1     -17.081  21.213  -5.218  0.00  0.00     0.217 HD
ENDBRANCH   7  25
BRANCH  10  27
HETATM   27  O   UNK N   1     -14.333  17.869  -8.003  0.00  0.00    -0.361 OA
HETATM   28  H   UNK N   1     -13.963  17.452  -8.794  0.00  0.00     0.217 HD
ENDBRANCH  10  27
TORSDOF 7
ENDMDL
MODEL 2
REMARK VINA RESULT:      -7.4      1.728      7.029
REMARK  7 active torsions:
REMARK  status: ('A' for Active; 'I' for Inactive)
REMARK    1  A    between atoms: O_2  and  C_8 
REMARK    2  A    between atoms: O_3  and  C_14 
REMARK    3  A    between atoms: O_4  and  C_19 
REMARK    4  A    between atoms: O_5  and  C_20 
REMARK    5  A    between atoms: O_6  and  C_21 
REMARK    6  A    between atoms: O_7  and  C_22 
REMARK    7  A    between atoms: C_9  and  C_12 
ROOT
HETATM    1  O   UNK N   1     -18.341  22.761 -12.418  0.00  0.00    -0.338 OA
HETATM    2  C   UNK N   1     -19.761  23.761 -10.785  0.00  0.00     0.156 C 
HETATM    3  C   UNK N   1     -18.342  23.287 -11.137  0.00  0.00     0.191 C 
HETATM    4  C   UNK N   1     -20.172  24.855 -11.789  0.00  0.00     0.079 C 
HETATM    5  C   UNK N   1     -19.825  24.471 -13.215  0.00  0.00     0.011 A 
HETATM    6  C   UNK N   1     -18.924  23.408 -13.453  0.00  0.00     0.081 A 
HETATM    7  C   UNK N   1     -20.366  25.177 -14.303  0.00  0.00     0.077 A 
HETATM    8  C   UNK N   1     -18.612  23.032 -14.759  0.00  0.00     0.074 A 
HETATM    9  C   UNK N   1     -20.032  24.799 -15.613  0.00  0.00     0.073 A 
HETATM   10  C   UNK N   1     -19.163  23.726 -15.842  0.00  0.00     0.071 A 
ENDROOT
BRANCH   3  11
HETATM   11  C   UNK N   1     -17.834  22.273 -10.152  0.00  0.00    -0.021 A 
HETATM   12  C   UNK N   1     -16.828  21.381 -10.540  0.00  0.00     0.049 A 
HETATM   13  C   UNK N   1     -16.328  20.440  -9.635  0.00  0.00     0.102 A 
HETATM   14  C   UNK N   1     -16.838  20.382  -8.327  0.00  0.00     0.132 A 
HETATM   15  C   UNK N   1     -17.851  21.279  -7.933  0.00  0.00     0.102 A 
HETATM   16  C   UNK N   1     -18.341  22.220  -8.844  0.00  0.00     0.049 A 
BRANCH  13  17
HETATM   17  O   UNK N   1     -15.353  19.587 -10.014  0.00  0.00    -0.358 OA
HETATM   18  H   UNK N   1     -14.932  19.658 -10.884  0.00  0.00     0.218 HD
ENDBRANCH  13  17
BRANCH  14  19
HETATM   19  O   UNK N   1     -16.349  19.468  -7.464  0.00  0.00    -0.356 OA
HETATM   20  H   UNK N   1     -16.043  19.710  -6.577  0.00  0.00     0.218 HD
ENDBRANCH  14  19
BRANCH  15  21
HETATM   21  O   UNK N   1     -18.347  21.232  -6.678  0.00  0.00    -0.358 OA
HETATM   22  H   UNK N   1     -19.297  21.313  -6.505  0.00  0.00     0.218 HD
ENDBRANCH  15  21
ENDBRANCH   3  11
BRANCH   2  23
HETATM   23  O   UNK N   1     -20.664  22.687 -10.882  0.00  0.00    -0.392 OA
HETATM   24  H   UNK N   1     -21.351  22.945 -11.551  0.00  0.00     0.210 HD
ENDBRANCH   2  23
BRANCH   7  25
HETATM   25  O   UNK N   1     -21.207  26.209 -14.087  0.00  0.00    -0.360 OA
HETATM   26  H   UNK N   1     -21.224  26.983 -14.669  0.00  0.00     0.217 HD
ENDBRANCH   7  25
BRANCH  10  27
HETATM   27  O   UNK N   1     -18.853  23.375 -17.107  0.00  0.00    -0.361 OA
HETATM   28  H   UNK N   1     -18.269  23.920 -17.654  0.00  0.00     0.217 HD
ENDBRANCH  10  27
TORSDOF 7
ENDMDL
MODEL 3
REMARK VINA RESULT:      -7.2      1.306      3.243
REMARK  7 active torsions:
REMARK  status: ('A' for Active; 'I' for Inactive)
REMARK    1  A    between atoms: O_2  and  C_8 
REMARK    2  A    between atoms: O_3  and  C_14 
REMARK    3  A    between atoms: O_4  and  C_19 
REMARK    4  A    between atoms: O_5  and  C_20 
REMARK    5  A    between atoms: O_6  and  C_21 
REMARK    6  A    between atoms: O_7  and  C_22 
REMARK    7  A    between atoms: C_9  and  C_12 
ROOT
HETATM    1  O   UNK N   1     -18.340  22.185 -10.818  0.00  0.00    -0.338 OA
HETATM    2  C   UNK N   1     -17.270  20.723 -12.367  0.00  0.00     0.156 C 
HETATM    3  C   UNK N   1     -17.625  22.173 -12.003  0.00  0.00     0.191 C 
HETATM    4  C   UNK N   1     -16.402  20.136 -11.238  0.00  0.00     0.079 C 
HETATM    5  C   UNK N   1     -16.960  20.466  -9.867  0.00  0.00     0.011 A 
HETATM    6  C   UNK N   1     -17.935  21.482  -9.735  0.00  0.00     0.081 A 
HETATM    7  C   UNK N   1     -16.500  19.796  -8.721  0.00  0.00     0.077 A 
HETATM    8  C   UNK N   1     -18.470  21.783  -8.483  0.00  0.00     0.074 A 
HETATM    9  C   UNK N   1     -17.036  20.118  -7.464  0.00  0.00     0.073 A 
HETATM   10  C   UNK N   1     -18.022  21.103  -7.345  0.00  0.00     0.071 A 
ENDROOT
BRANCH   3  11
HETATM   11  C   UNK N   1     -18.407  22.845 -13.096  0.00  0.00    -0.021 A 
HETATM   12  C   UNK N   1     -19.515  23.633 -12.764  0.00  0.00     0.049 A 
HETATM   13  C   UNK N   1     -20.248  24.282 -13.762  0.00  0.00     0.102 A 
HETATM   14  C   UNK N   1     -19.876  24.143 -15.110  0.00  0.00     0.132 A 
HETATM   15  C   UNK N   1     -18.760  23.351 -15.448  0.00  0.00     0.102 A 
HETATM   16  C   UNK N   1     -18.031  22.710 -14.441  0.00  0.00     0.049 A 
BRANCH  13  17
HETATM   17  O   UNK N   1     -21.312  25.045 -13.434  0.00  0.00    -0.358 OA
HETATM   18  H   UNK N   1     -22.015  25.230 -14.074  0.00  0.00     0.218 HD
ENDBRANCH  13  17
BRANCH  14  19
HETATM   19  O   UNK N   1     -20.592  24.772 -16.064  0.00  0.00    -0.356 OA
HETATM   20  H   UNK N   1     -20.235  25.518 -16.567  0.00  0.00     0.218 HD
ENDBRANCH  14  19
BRANCH  15  21
HETATM   21  O   UNK N   1     -18.394  23.212 -16.740  0.00  0.00    -0.358 OA
HETATM   22  H   UNK N   1     -19.009  22.870 -17.407  0.00  0.00     0.218 HD
ENDBRANCH  15  21
ENDBRANCH   3  11
BRANCH   2  23
HETATM   23  O   UNK N   1     -18.445  19.957 -12.487  0.00  0.00    -0.392 OA
HETATM   24  H   UNK N   1     -18.685  19.944 -13.451  0.00  0.00     0.210 HD
ENDBRANCH   2  23
BRANCH   7  25
HETATM   25  O   UNK N   1     -15.552  18.843  -8.832  0.00  0.00    -0.360 OA
HETATM   26  H   UNK N   1     -14.996  18.588  -8.081  0.00  0.00     0.217 HD
ENDBRANCH   7  25
BRANCH  10  27
HETATM   27  O   UNK N   1     -18.527  21.400  -6.130  0.00  0.00    -0.361 OA
HETATM   28  H   UNK N   1     -19.347  20.996  -5.810  0.00  0.00     0.217 HD
ENDBRANCH  10  27
TORSDOF 7
ENDMDL
MODEL 4
REMARK VINA RESULT:      -6.9      3.604      9.176
REMARK  7 active torsions:
REMARK  status: ('A' for Active; 'I' for Inactive)
REMARK    1  A    between atoms: O_2  and  C_8 
REMARK    2  A    between atoms: O_3  and  C_14 
REMARK    3  A    between atoms: O_4  and  C_19 
REMARK    4  A    between atoms: O_5  and  C_20 
REMARK    5  A    between atoms: O_6  and  C_21 
REMARK    6  A    between atoms: O_7  and  C_22 
REMARK    7  A    between atoms: C_9  and  C_12 
ROOT
HETATM    1  O   UNK N   1     -15.628  18.470  -6.531  0.00  0.00    -0.338 OA
HETATM    2  C   UNK N   1     -17.518  18.911  -5.147  0.00  0.00     0.156 C 
HETATM    3  C   UNK N   1     -15.993  18.735  -5.222  0.00  0.00     0.191 C 
HETATM    4  C   UNK N   1     -17.915  20.101  -6.041  0.00  0.00     0.079 C 
HETATM    5  C   UNK N   1     -17.216  20.055  -7.386  0.00  0.00     0.011 A 
HETATM    6  C   UNK N   1     -16.098  19.207  -7.564  0.00  0.00     0.081 A 
HETATM    7  C   UNK N   1     -17.645  20.865  -8.450  0.00  0.00     0.077 A 
HETATM    8  C   UNK N   1     -15.458  19.140  -8.801  0.00  0.00     0.074 A 
HETATM    9  C   UNK N   1     -16.983  20.800  -9.687  0.00  0.00     0.073 A 
HETATM   10  C   UNK N   1     -15.897  19.936  -9.864  0.00  0.00     0.071 A 
ENDROOT
BRANCH   3  11
HETATM   11  C   UNK N   1     -15.514  17.640  -4.311  0.00  0.00    -0.021 A 
HETATM   12  C   UNK N   1     -14.308  16.989  -4.593  0.00  0.00     0.049 A 
HETATM   13  C   UNK N   1     -13.835  15.979  -3.751  0.00  0.00     0.102 A 
HETATM   14  C   UNK N   1     -14.572  15.609  -2.613  0.00  0.00     0.132 A 
HETATM   15  C   UNK N   1     -15.786  16.263  -2.325  0.00  0.00     0.102 A 
HETATM   16  C   UNK N   1     -16.249  17.276  -3.172  0.00  0.00     0.049 A 
BRANCH  13  17
HETATM   17  O   UNK N   1     -12.667  15.360  -4.026  0.00  0.00    -0.358 OA
HETATM   18  H   UNK N   1     -11.848  15.603  -3.569  0.00  0.00     0.218 HD
ENDBRANCH  13  17
BRANCH  14  19
HETATM   19  O   UNK N   1     -14.105  14.632  -1.809  0.00  0.00    -0.356 OA
HETATM   20  H   UNK N   1     -14.673  13.917  -1.485  0.00  0.00     0.218 HD
ENDBRANCH  14  19
BRANCH  15  21
HETATM   21  O   UNK N   1     -16.502  15.915  -1.234  0.00  0.00    -0.358 OA
HETATM   22  H   UNK N   1     -16.624  14.987  -0.983  0.00  0.00     0.218 HD
ENDBRANCH  15  21
ENDBRANCH   3  11
BRANCH   2  23
HETATM   23  O   UNK N   1     -18.159  17.750  -5.617  0.00  0.00    -0.392 OA
HETATM   24  H   UNK N   1     -18.113  17.078  -4.888  0.00  0.00     0.210 HD
ENDBRANCH   2  23
BRANCH   7  25
HETATM   25  O   UNK N   1     -18.695  21.697  -8.284  0.00  0.00    -0.360 OA
HETATM   26  H   UNK N   1     -19.565  21.371  -8.015  0.00  0.00     0.217 HD
ENDBRANCH   7  25
BRANCH  10  27
HETATM   27  O   UNK N   1     -15.272  19.885 -11.058  0.00  0.00    -0.361 OA
HETATM   28  H   UNK N   1     -15.731  19.590 -11.858  0.00  0.00     0.217 HD
ENDBRANCH  10  27
TORSDOF 7
ENDMDL
MODEL 5
REMARK VINA RESULT:      -6.9     31.815     32.789
REMARK  7 active torsions:
REMARK  status: ('A' for Active; 'I' for Inactive)
REMARK    1  A    between atoms: O_2  and  C_8 
REMARK    2  A    between atoms: O_3  and  C_14 
REMARK    3  A    between atoms: O_4  and  C_19 
REMARK    4  A    between atoms: O_5  and  C_20 
REMARK    5  A    between atoms: O_6  and  C_21 
REMARK    6  A    between atoms: O_7  and  C_22 
REMARK    7  A    between atoms: C_9  and  C_12 
ROOT
HETATM    1  O   UNK N   1     -38.493  -3.567  -6.555  0.00  0.00    -0.338 OA
HETATM    2  C   UNK N   1     -36.235  -2.805  -6.554  0.00  0.00     0.156 C 
HETATM    3  C   UNK N   1     -37.463  -3.181  -7.396  0.00  0.00     0.191 C 
HETATM    4  C   UNK N   1     -36.616  -1.627  -5.637  0.00  0.00     0.079 C 
HETATM    5  C   UNK N   1     -37.962  -1.842  -4.973  0.00  0.00     0.011 A 
HETATM    6  C   UNK N   1     -38.836  -2.836  -5.469  0.00  0.00     0.081 A 
HETATM    7  C   UNK N   1     -38.366  -1.045  -3.888  0.00  0.00     0.077 A 
HETATM    8  C   UNK N   1     -40.069  -3.057  -4.856  0.00  0.00     0.074 A 
HETATM    9  C   UNK N   1     -39.616  -1.267  -3.288  0.00  0.00     0.073 A 
HETATM   10  C   UNK N   1     -40.462  -2.273  -3.765  0.00  0.00     0.071 A 
ENDROOT
BRANCH   3  11
HETATM   11  C   UNK N   1     -37.150  -4.275  -8.378  0.00  0.00    -0.021 A 
HETATM   12  C   UNK N   1     -37.802  -5.508  -8.266  0.00  0.00     0.049 A 
HETATM   13  C   UNK N   1     -37.540  -6.533  -9.179  0.00  0.00     0.102 A 
HETATM   14  C   UNK N   1     -36.613  -6.332 -10.216  0.00  0.00     0.132 A 
HETATM   15  C   UNK N   1     -35.955  -5.092 -10.332  0.00  0.00     0.102 A 
HETATM   16  C   UNK N   1     -36.228  -4.070  -9.417  0.00  0.00     0.049 A 
BRANCH  13  17
HETATM   17  O   UNK N   1     -38.177  -7.718  -9.068  0.00  0.00    -0.358 OA
HETATM   18  H   UNK N   1     -38.359  -8.113  -8.203  0.00  0.00     0.218 HD
ENDBRANCH  13  17
BRANCH  14  19
HETATM   19  O   UNK N   1     -36.367  -7.331 -11.089  0.00  0.00    -0.356 OA
HETATM   20  H   UNK N   1     -36.295  -7.175 -12.042  0.00  0.00     0.218 HD
ENDBRANCH  14  19
BRANCH  15  21
HETATM   21  O   UNK N   1     -35.063  -4.888 -11.325  0.00  0.00    -0.358 OA
HETATM   22  H   UNK N   1     -34.977  -5.508 -12.065  0.00  0.00     0.218 HD
ENDBRANCH  15  21
ENDBRANCH   3  11
BRANCH   2  23
HETATM   23  O   UNK N   1     -35.845  -3.898  -5.758  0.00  0.00    -0.392 OA
HETATM   24  H   UNK N   1     -36.669  -4.406  -5.540  0.00  0.00     0.210 HD
ENDBRANCH   2  23
BRANCH   7  25
HETATM   25  O   UNK N   1     -37.551  -0.076  -3.422  0.00  0.00    -0.360 OA
HETATM   26  H   UNK N   1     -36.591  -0.116  -3.543  0.00  0.00     0.217 HD
ENDBRANCH   7  25
BRANCH  10  27
HETATM   27  O   UNK N   1     -41.660  -2.474  -3.178  0.00  0.00    -0.361 OA
HETATM   28  H   UNK N   1     -42.425  -2.785  -3.683  0.00  0.00     0.217 HD
ENDBRANCH  10  27
TORSDOF 7
ENDMDL
MODEL 6
REMARK VINA RESULT:      -6.9      3.192      8.798
REMARK  7 active torsions:
REMARK  status: ('A' for Active; 'I' for Inactive)
REMARK    1  A    between atoms: O_2  and  C_8 
REMARK    2  A    between atoms: O_3  and  C_14 
REMARK    3  A    between atoms: O_4  and  C_19 
REMARK    4  A    between atoms: O_5  and  C_20 
REMARK    5  A    between atoms: O_6  and  C_21 
REMARK    6  A    between atoms: O_7  and  C_22 
REMARK    7  A    between atoms: C_9  and  C_12 
ROOT
HETATM    1  O   UNK N   1     -17.773  19.842  -6.697  0.00  0.00    -0.338 OA
HETATM    2  C   UNK N   1     -15.931  18.329  -6.672  0.00  0.00     0.156 C 
HETATM    3  C   UNK N   1     -17.423  18.542  -6.373  0.00  0.00     0.191 C 
HETATM    4  C   UNK N   1     -15.698  18.563  -8.177  0.00  0.00     0.079 C 
HETATM    5  C   UNK N   1     -16.406  19.809  -8.671  0.00  0.00     0.011 A 
HETATM    6  C   UNK N   1     -17.413  20.403  -7.875  0.00  0.00     0.081 A 
HETATM    7  C   UNK N   1     -16.097  20.366  -9.923  0.00  0.00     0.077 A 
HETATM    8  C   UNK N   1     -18.059  21.560  -8.309  0.00  0.00     0.074 A 
HETATM    9  C   UNK N   1     -16.764  21.522 -10.356  0.00  0.00     0.073 A 
HETATM   10  C   UNK N   1     -17.738  22.122  -9.549  0.00  0.00     0.071 A 
ENDROOT
BRANCH   3  11
HETATM   11  C   UNK N   1     -17.749  18.254  -4.935  0.00  0.00    -0.021 A 
HETATM   12  C   UNK N   1     -18.422  19.217  -4.176  0.00  0.00     0.049 A 
HETATM   13  C   UNK N   1     -18.751  18.964  -2.841  0.00  0.00     0.102 A 
HETATM   14  C   UNK N   1     -18.402  17.737  -2.251  0.00  0.00     0.132 A 
HETATM   15  C   UNK N   1     -17.724  16.765  -3.012  0.00  0.00     0.102 A 
HETATM   16  C   UNK N   1     -17.404  17.026  -4.349  0.00  0.00     0.049 A 
BRANCH  13  17
HETATM   17  O   UNK N   1     -19.407  19.895  -2.116  0.00  0.00    -0.358 OA
HETATM   18  H   UNK N   1     -20.169  19.661  -1.566  0.00  0.00     0.218 HD
ENDBRANCH  13  17
BRANCH  14  19
HETATM   19  O   UNK N   1     -18.723  17.506  -0.961  0.00  0.00    -0.356 OA
HETATM   20  H   UNK N   1     -18.243  17.921  -0.230  0.00  0.00     0.218 HD
ENDBRANCH  14  19
BRANCH  15  21
HETATM   21  O   UNK N   1     -17.385  15.583  -2.455  0.00  0.00    -0.358 OA
HETATM   22  H   UNK N   1     -16.461  15.355  -2.273  0.00  0.00     0.218 HD
ENDBRANCH  15  21
ENDBRANCH   3  11
BRANCH   2  23
HETATM   23  O   UNK N   1     -15.158  19.250  -5.940  0.00  0.00    -0.392 OA
HETATM   24  H   UNK N   1     -14.960  20.010  -6.548  0.00  0.00     0.210 HD
ENDBRANCH   2  23
BRANCH   7  25
HETATM   25  O   UNK N   1     -15.156  19.793 -10.702  0.00  0.00    -0.360 OA
HETATM   26  H   UNK N   1     -14.331  20.248 -10.923  0.00  0.00     0.217 HD
ENDBRANCH   7  25
BRANCH  10  27
HETATM   27  O   UNK N   1     -18.370  23.233  -9.979  0.00  0.00    -0.361 OA
HETATM   28  H   UNK N   1     -19.335  23.311  -9.946  0.00  0.00     0.217 HD
ENDBRANCH  10  27
TORSDOF 7
ENDMDL
MODEL 7
REMARK VINA RESULT:      -6.8     31.572     32.774
REMARK  7 active torsions:
REMARK  status: ('A' for Active; 'I' for Inactive)
REMARK    1  A    between atoms: O_2  and  C_8 
REMARK    2  A    between atoms: O_3  and  C_14 
REMARK    3  A    between atoms: O_4  and  C_19 
REMARK    4  A    between atoms: O_5  and  C_20 
REMARK    5  A    between atoms: O_6  and  C_21 
REMARK    6  A    between atoms: O_7  and  C_22 
REMARK    7  A    between atoms: C_9  and  C_12 
ROOT
HETATM    1  O   UNK N   1     -38.813  -3.405  -6.900  0.00  0.00    -0.338 OA
HETATM    2  C   UNK N   1     -36.832  -2.081  -6.976  0.00  0.00     0.156 C 
HETATM    3  C   UNK N   1     -37.829  -2.852  -6.098  0.00  0.00     0.191 C 
HETATM    4  C   UNK N   1     -36.189  -3.070  -7.966  0.00  0.00     0.079 C 
HETATM    5  C   UNK N   1     -37.220  -3.984  -8.600  0.00  0.00     0.011 A 
HETATM    6  C   UNK N   1     -38.510  -4.087  -8.029  0.00  0.00     0.081 A 
HETATM    7  C   UNK N   1     -36.902  -4.754  -9.732  0.00  0.00     0.077 A 
HETATM    8  C   UNK N   1     -39.473  -4.908  -8.613  0.00  0.00     0.074 A 
HETATM    9  C   UNK N   1     -37.876  -5.589 -10.302  0.00  0.00     0.073 A 
HETATM   10  C   UNK N   1     -39.159  -5.662  -9.750  0.00  0.00     0.071 A 
ENDROOT
BRANCH   3  11
HETATM   11  C   UNK N   1     -38.443  -1.970  -5.047  0.00  0.00    -0.021 A 
HETATM   12  C   UNK N   1     -37.997  -0.651  -4.910  0.00  0.00     0.049 A 
HETATM   13  C   UNK N   1     -38.566   0.193  -3.951  0.00  0.00     0.102 A 
HETATM   14  C   UNK N   1     -39.590  -0.283  -3.115  0.00  0.00     0.132 A 
HETATM   15  C   UNK N   1     -40.042  -1.610  -3.251  0.00  0.00     0.102 A 
HETATM   16  C   UNK N   1     -39.471  -2.445  -4.216  0.00  0.00     0.049 A 
BRANCH  13  17
HETATM   17  O   UNK N   1     -38.135   1.466  -3.828  0.00  0.00    -0.358 OA
HETATM   18  H   UNK N   1     -37.246   1.667  -3.499  0.00  0.00     0.218 HD
ENDBRANCH  13  17
BRANCH  14  19
HETATM   19  O   UNK N   1     -40.129   0.541  -2.192  0.00  0.00    -0.356 OA
HETATM   20  H   UNK N   1     -41.087   0.636  -2.084  0.00  0.00     0.218 HD
ENDBRANCH  14  19
BRANCH  15  21
HETATM   21  O   UNK N   1     -41.027  -2.076  -2.452  0.00  0.00    -0.358 OA
HETATM   22  H   UNK N   1     -40.836  -2.646  -1.692  0.00  0.00     0.218 HD
ENDBRANCH  15  21
ENDBRANCH   3  11
BRANCH   2  23
HETATM   23  O   UNK N   1     -37.505  -1.080  -7.700  0.00  0.00    -0.392 OA
HETATM   24  H   UNK N   1     -38.476  -1.202  -7.530  0.00  0.00     0.210 HD
ENDBRANCH   2  23
BRANCH   7  25
HETATM   25  O   UNK N   1     -35.667  -4.684 -10.271  0.00  0.00    -0.360 OA
HETATM   26  H   UNK N   1     -35.352  -5.338 -10.910  0.00  0.00     0.217 HD
ENDBRANCH   7  25
BRANCH  10  27
HETATM   27  O   UNK N   1     -40.083  -6.469 -10.310  0.00  0.00    -0.361 OA
HETATM   28  H   UNK N   1     -40.080  -7.425 -10.156  0.00  0.00     0.217 HD
ENDBRANCH  10  27
TORSDOF 7
ENDMDL
MODEL 8
REMARK VINA RESULT:      -6.7      3.496      8.959
REMARK  7 active torsions:
REMARK  status: ('A' for Active; 'I' for Inactive)
REMARK    1  A    between atoms: O_2  and  C_8 
REMARK    2  A    between atoms: O_3  and  C_14 
REMARK    3  A    between atoms: O_4  and  C_19 
REMARK    4  A    between atoms: O_5  and  C_20 
REMARK    5  A    between atoms: O_6  and  C_21 
REMARK    6  A    between atoms: O_7  and  C_22 
REMARK    7  A    between atoms: C_9  and  C_12 
ROOT
HETATM    1  O   UNK N   1     -16.574  19.012  -6.437  0.00  0.00    -0.338 OA
HETATM    2  C   UNK N   1     -18.613  19.887  -5.566  0.00  0.00     0.156 C 
HETATM    3  C   UNK N   1     -17.153  19.504  -5.280  0.00  0.00     0.191 C 
HETATM    4  C   UNK N   1     -18.626  20.981  -6.650  0.00  0.00     0.079 C 
HETATM    5  C   UNK N   1     -17.683  20.656  -7.791  0.00  0.00     0.011 A 
HETATM    6  C   UNK N   1     -16.701  19.652  -7.623  0.00  0.00     0.081 A 
HETATM    7  C   UNK N   1     -17.752  21.358  -9.007  0.00  0.00     0.077 A 
HETATM    8  C   UNK N   1     -15.839  19.330  -8.671  0.00  0.00     0.074 A 
HETATM    9  C   UNK N   1     -16.869  21.035 -10.049  0.00  0.00     0.073 A 
HETATM   10  C   UNK N   1     -15.920  20.020  -9.886  0.00  0.00     0.071 A 
ENDROOT
BRANCH   3  11
HETATM   11  C   UNK N   1     -17.050  18.494  -4.171  0.00  0.00    -0.021 A 
HETATM   12  C   UNK N   1     -17.492  18.834  -2.888  0.00  0.00     0.049 A 
HETATM   13  C   UNK N   1     -17.421  17.904  -1.846  0.00  0.00     0.102 A 
HETATM   14  C   UNK N   1     -16.901  16.621  -2.082  0.00  0.00     0.132 A 
HETATM   15  C   UNK N   1     -16.455  16.275  -3.373  0.00  0.00     0.102 A 
HETATM   16  C   UNK N   1     -16.535  17.210  -4.411  0.00  0.00     0.049 A 
BRANCH  13  17
HETATM   17  O   UNK N   1     -17.855  18.237  -0.612  0.00  0.00    -0.358 OA
HETATM   18  H   UNK N   1     -17.241  18.323   0.132  0.00  0.00     0.218 HD
ENDBRANCH  13  17
BRANCH  14  19
HETATM   19  O   UNK N   1     -16.836  15.734  -1.067  0.00  0.00    -0.356 OA
HETATM   20  H   UNK N   1     -17.520  15.064  -0.925  0.00  0.00     0.218 HD
ENDBRANCH  14  19
BRANCH  15  21
HETATM   21  O   UNK N   1     -15.954  15.044  -3.611  0.00  0.00    -0.358 OA
HETATM   22  H   UNK N   1     -15.909  14.372  -2.914  0.00  0.00     0.218 HD
ENDBRANCH  15  21
ENDBRANCH   3  11
BRANCH   2  23
HETATM   23  O   UNK N   1     -19.320  18.766  -6.038  0.00  0.00    -0.392 OA
HETATM   24  H   UNK N   1     -19.063  18.641  -6.990  0.00  0.00     0.210 HD
ENDBRANCH   2  23
BRANCH   7  25
HETATM   25  O   UNK N   1     -18.668  22.335  -9.170  0.00  0.00    -0.360 OA
HETATM   26  H   UNK N   1     -19.614  22.173  -9.042  0.00  0.00     0.217 HD
ENDBRANCH   7  25
BRANCH  10  27
HETATM   27  O   UNK N   1     -15.080  19.721 -10.897  0.00  0.00    -0.361 OA
HETATM   28  H   UNK N   1     -14.677  20.413 -11.442  0.00  0.00     0.217 HD
ENDBRANCH  10  27
TORSDOF 7
ENDMDL
MODEL 9
REMARK VINA RESULT:      -6.6     26.392     29.490
REMARK  7 active torsions:
REMARK  status: ('A' for Active; 'I' for Inactive)
REMARK    1  A    between atoms: O_2  and  C_8 
REMARK    2  A    between atoms: O_3  and  C_14 
REMARK    3  A    between atoms: O_4  and  C_19 
REMARK    4  A    between atoms: O_5  and  C_20 
REMARK    5  A    between atoms: O_6  and  C_21 
REMARK    6  A    between atoms: O_7  and  C_22 
REMARK    7  A    between atoms: C_9  and  C_12 
ROOT
HETATM    1  O   UNK N   1     -30.589  47.343  -8.959  0.00  0.00    -0.338 OA
HETATM    2  C   UNK N   1     -32.729  47.116  -7.935  0.00  0.00     0.156 C 
HETATM    3  C   UNK N   1     -31.242  46.732  -7.903  0.00  0.00     0.191 C 
HETATM    4  C   UNK N   1     -32.841  48.645  -7.789  0.00  0.00     0.079 C 
HETATM    5  C   UNK N   1     -31.844  49.370  -8.673  0.00  0.00     0.011 A 
HETATM    6  C   UNK N   1     -30.761  48.657  -9.237  0.00  0.00     0.081 A 
HETATM    7  C   UNK N   1     -31.965  50.749  -8.916  0.00  0.00     0.077 A 
HETATM    8  C   UNK N   1     -29.849  49.307 -10.067  0.00  0.00     0.074 A 
HETATM    9  C   UNK N   1     -31.032  51.395  -9.742  0.00  0.00     0.073 A 
HETATM   10  C   UNK N   1     -29.980  50.677 -10.321  0.00  0.00     0.071 A 
ENDROOT
BRANCH   3  11
HETATM   11  C   UNK N   1     -31.051  45.242  -7.960  0.00  0.00    -0.021 A 
HETATM   12  C   UNK N   1     -30.427  44.670  -9.074  0.00  0.00     0.049 A 
HETATM   13  C   UNK N   1     -30.223  43.289  -9.140  0.00  0.00     0.102 A 
HETATM   14  C   UNK N   1     -30.649  42.464  -8.086  0.00  0.00     0.132 A 
HETATM   15  C   UNK N   1     -31.276  43.036  -6.962  0.00  0.00     0.102 A 
HETATM   16  C   UNK N   1     -31.472  44.420  -6.902  0.00  0.00     0.049 A 
BRANCH  13  17
HETATM   17  O   UNK N   1     -29.615  42.745 -10.216  0.00  0.00    -0.358 OA
HETATM   18  H   UNK N   1     -29.364  43.286 -10.979  0.00  0.00     0.218 HD
ENDBRANCH  13  17
BRANCH  14  19
HETATM   19  O   UNK N   1     -30.448  41.132  -8.163  0.00  0.00    -0.356 OA
HETATM   20  H   UNK N   1     -29.852  40.739  -8.816  0.00  0.00     0.218 HD
ENDBRANCH  14  19
BRANCH  15  21
HETATM   21  O   UNK N   1     -31.688  42.252  -5.942  0.00  0.00    -0.358 OA
HETATM   22  H   UNK N   1     -31.445  42.443  -5.025  0.00  0.00     0.218 HD
ENDBRANCH  15  21
ENDBRANCH   3  11
BRANCH   2  23
HETATM   23  O   UNK N   1     -33.299  46.730  -9.163  0.00  0.00    -0.392 OA
HETATM   24  H   UNK N   1     -34.136  47.253  -9.271  0.00  0.00     0.210 HD
ENDBRANCH   2  23
BRANCH   7  25
HETATM   25  O   UNK N   1     -32.980  51.445  -8.363  0.00  0.00    -0.360 OA
HETATM   26  H   UNK N   1     -33.859  51.057  -8.246  0.00  0.00     0.217 HD
ENDBRANCH   7  25
BRANCH  10  27
HETATM   27  O   UNK N   1     -29.092  51.312 -11.112  0.00  0.00    -0.361 OA
HETATM   28  H   UNK N   1     -28.503  51.998 -10.763  0.00  0.00     0.217 HD
ENDBRANCH  10  27
TORSDOF 7
ENDMDL
