MODEL 1
REMARK VINA RESULT:      -7.5      0.000      0.000
REMARK  11 active torsions:
REMARK  status: ('A' for Active; 'I' for Inactive)
REMARK    1  A    between atoms: O_2  and  C_11 
REMARK    2  A    between atoms: O_2  and  C_23 
REMARK    3  A    between atoms: O_3  and  C_17 
REMARK    4  A    between atoms: O_4  and  C_22 
REMARK    5  A    between atoms: O_5  and  C_24 
REMARK    6  A    between atoms: O_7  and  C_26 
REMARK    7  A    between atoms: O_8  and  C_30 
REMARK    8  A    between atoms: O_9  and  C_31 
REMARK    9  A    between atoms: O_10  and  C_32 
REMARK   10  A    between atoms: C_12  and  C_16 
REMARK   11  A    between atoms: C_23  and  C_27 
ROOT
HETATM    1  O   UNK N   1     -17.789  19.817  -6.647  0.00  0.00    -0.338 OA
HETATM    2  C   UNK N   1     -16.008  18.223  -6.618  0.00  0.00     0.170 C 
HETATM    3  C   UNK N   1     -17.485  18.507  -6.305  0.00  0.00     0.192 C 
HETATM    4  C   UNK N   1     -15.783  18.430  -8.134  0.00  0.00     0.080 C 
HETATM    5  C   UNK N   1     -16.399  19.734  -8.608  0.00  0.00     0.011 A 
HETATM    6  C   UNK N   1     -17.382  20.373  -7.816  0.00  0.00     0.081 A 
HETATM    7  C   UNK N   1     -16.020  20.306  -9.836  0.00  0.00     0.077 A 
HETATM    8  C   UNK N   1     -17.951  21.576  -8.239  0.00  0.00     0.074 A 
HETATM    9  C   UNK N   1     -16.608  21.511 -10.255  0.00  0.00     0.073 A 
HETATM   10  C   UNK N   1     -17.568  22.145  -9.461  0.00  0.00     0.071 A 
ENDROOT
BRANCH   2  11
HETATM   11  O   UNK N   1     -15.232  19.132  -5.929  0.00  0.00    -0.309 OA
BRANCH  11  12
HETATM   12  C   UNK N   1     -14.154  18.812  -5.169  0.00  0.00     0.294 C 
HETATM   13  O   UNK N   1     -13.030  19.153  -5.508  0.00  0.00    -0.259 OA
BRANCH  12  14
HETATM   14  C   UNK N   1     -14.368  18.041  -3.930  0.00  0.00     0.045 A 
HETATM   15  C   UNK N   1     -14.247  16.643  -3.911  0.00  0.00     0.057 A 
HETATM   16  C   UNK N   1     -14.468  15.932  -2.720  0.00  0.00     0.102 A 
HETATM   17  C   UNK N   1     -14.788  16.626  -1.536  0.00  0.00     0.132 A 
HETATM   18  C   UNK N   1     -14.886  18.024  -1.553  0.00  0.00     0.102 A 
HETATM   19  C   UNK N   1     -14.686  18.723  -2.747  0.00  0.00     0.057 A 
BRANCH  16  20
HETATM   20  O   UNK N   1     -14.378  14.585  -2.709  0.00  0.00    -0.358 OA
HETATM   21  H   UNK N   1     -14.119  14.098  -1.914  0.00  0.00     0.218 HD
ENDBRANCH  16  20
BRANCH  17  22
HETATM   22  O   UNK N   1     -15.004  15.965  -0.379  0.00  0.00    -0.356 OA
HETATM   23  H   UNK N   1     -15.434  16.380   0.382  0.00  0.00     0.218 HD
ENDBRANCH  17  22
BRANCH  18  24
HETATM   24  O   UNK N   1     -15.170  18.692  -0.415  0.00  0.00    -0.358 OA
HETATM   25  H   UNK N   1     -14.513  19.255   0.020  0.00  0.00     0.218 HD
ENDBRANCH  18  24
ENDBRANCH  12  14
ENDBRANCH  11  12
ENDBRANCH   2  11
BRANCH   3  26
HETATM   26  C   UNK N   1     -17.824  18.243  -4.853  0.00  0.00    -0.024 A 
HETATM   27  C   UNK N   1     -17.798  16.940  -4.319  0.00  0.00     0.049 A 
HETATM   28  C   UNK N   1     -18.101  16.721  -2.964  0.00  0.00     0.099 A 
HETATM   29  C   UNK N   1     -18.441  17.805  -2.141  0.00  0.00     0.098 A 
HETATM   30  C   UNK N   1     -18.474  19.101  -2.674  0.00  0.00     0.040 A 
HETATM   31  C   UNK N   1     -18.166  19.318  -4.018  0.00  0.00     0.013 A 
BRANCH  28  32
HETATM   32  O   UNK N   1     -18.067  15.476  -2.445  0.00  0.00    -0.358 OA
HETATM   33  H   UNK N   1     -18.847  15.069  -2.040  0.00  0.00     0.218 HD
ENDBRANCH  28  32
BRANCH  29  34
HETATM   34  O   UNK N   1     -18.733  17.594  -0.840  0.00  0.00    -0.358 OA
HETATM   35  H   UNK N   1     -19.306  18.196  -0.343  0.00  0.00     0.218 HD
ENDBRANCH  29  34
ENDBRANCH   3  26
BRANCH   7  36
HETATM   36  O   UNK N   1     -15.089  19.701 -10.604  0.00  0.00    -0.360 OA
HETATM   37  H   UNK N   1     -14.579  20.189 -11.266  0.00  0.00     0.217 HD
ENDBRANCH   7  36
BRANCH  10  38
HETATM   38  O   UNK N   1     -18.126  23.298  -9.885  0.00  0.00    -0.361 OA
HETATM   39  H   UNK N   1     -18.575  23.901  -9.274  0.00  0.00     0.217 HD
ENDBRANCH  10  38
TORSDOF 11
ENDMDL
MODEL 2
REMARK VINA RESULT:      -7.2     10.352     16.384
REMARK  11 active torsions:
REMARK  status: ('A' for Active; 'I' for Inactive)
REMARK    1  A    between atoms: O_2  and  C_11 
REMARK    2  A    between atoms: O_2  and  C_23 
REMARK    3  A    between atoms: O_3  and  C_17 
REMARK    4  A    between atoms: O_4  and  C_22 
REMARK    5  A    between atoms: O_5  and  C_24 
REMARK    6  A    between atoms: O_7  and  C_26 
REMARK    7  A    between atoms: O_8  and  C_30 
REMARK    8  A    between atoms: O_9  and  C_31 
REMARK    9  A    between atoms: O_10  and  C_32 
REMARK   10  A    between atoms: C_12  and  C_16 
REMARK   11  A    between atoms: C_23  and  C_27 
ROOT
HETATM    1  O   UNK N   1     -21.524  26.015 -14.967  0.00  0.00    -0.338 OA
HETATM    2  C   UNK N   1     -21.736  25.219 -17.211  0.00  0.00     0.170 C 
HETATM    3  C   UNK N   1     -21.710  26.437 -16.275  0.00  0.00     0.192 C 
HETATM    4  C   UNK N   1     -20.382  24.482 -17.089  0.00  0.00     0.080 C 
HETATM    5  C   UNK N   1     -19.991  24.287 -15.636  0.00  0.00     0.011 A 
HETATM    6  C   UNK N   1     -20.604  25.074 -14.634  0.00  0.00     0.081 A 
HETATM    7  C   UNK N   1     -19.010  23.346 -15.273  0.00  0.00     0.077 A 
HETATM    8  C   UNK N   1     -20.257  24.899 -13.292  0.00  0.00     0.074 A 
HETATM    9  C   UNK N   1     -18.662  23.187 -13.921  0.00  0.00     0.073 A 
HETATM   10  C   UNK N   1     -19.283  23.958 -12.934  0.00  0.00     0.071 A 
ENDROOT
BRANCH   2  11
HETATM   11  O   UNK N   1     -22.738  24.368 -16.794  0.00  0.00    -0.309 OA
BRANCH  11  12
HETATM   12  C   UNK N   1     -23.782  23.965 -17.563  0.00  0.00     0.294 C 
HETATM   13  O   UNK N   1     -23.624  23.124 -18.435  0.00  0.00    -0.259 OA
BRANCH  12  14
HETATM   14  C   UNK N   1     -25.108  24.567 -17.325  0.00  0.00     0.045 A 
HETATM   15  C   UNK N   1     -25.754  24.440 -16.085  0.00  0.00     0.057 A 
HETATM   16  C   UNK N   1     -27.022  25.012 -15.888  0.00  0.00     0.102 A 
HETATM   17  C   UNK N   1     -27.635  25.736 -16.930  0.00  0.00     0.132 A 
HETATM   18  C   UNK N   1     -26.978  25.880 -18.159  0.00  0.00     0.102 A 
HETATM   19  C   UNK N   1     -25.726  25.289 -18.355  0.00  0.00     0.057 A 
BRANCH  16  20
HETATM   20  O   UNK N   1     -27.654  24.866 -14.704  0.00  0.00    -0.358 OA
HETATM   21  H   UNK N   1     -27.425  25.405 -13.935  0.00  0.00     0.218 HD
ENDBRANCH  16  20
BRANCH  17  22
HETATM   22  O   UNK N   1     -28.852  26.295 -16.764  0.00  0.00    -0.356 OA
HETATM   23  H   UNK N   1     -29.577  25.836 -16.318  0.00  0.00     0.218 HD
ENDBRANCH  17  22
BRANCH  18  24
HETATM   24  O   UNK N   1     -27.554  26.592 -19.150  0.00  0.00    -0.358 OA
HETATM   25  H   UNK N   1     -28.508  26.753 -19.171  0.00  0.00     0.218 HD
ENDBRANCH  18  24
ENDBRANCH  12  14
ENDBRANCH  11  12
ENDBRANCH   2  11
BRANCH   3  26
HETATM   26  C   UNK N   1     -22.965  27.276 -16.392  0.00  0.00    -0.024 A 
HETATM   27  C   UNK N   1     -23.311  27.915 -17.599  0.00  0.00     0.049 A 
HETATM   28  C   UNK N   1     -24.490  28.676 -17.687  0.00  0.00     0.099 A 
HETATM   29  C   UNK N   1     -25.322  28.807 -16.565  0.00  0.00     0.098 A 
HETATM   30  C   UNK N   1     -24.973  28.177 -15.362  0.00  0.00     0.040 A 
HETATM   31  C   UNK N   1     -23.806  27.417 -15.277  0.00  0.00     0.013 A 
BRANCH  28  32
HETATM   32  O   UNK N   1     -24.832  29.281 -18.844  0.00  0.00    -0.358 OA
HETATM   33  H   UNK N   1     -25.628  29.827 -18.920  0.00  0.00     0.218 HD
ENDBRANCH  28  32
BRANCH  29  34
HETATM   34  O   UNK N   1     -26.453  29.538 -16.651  0.00  0.00    -0.358 OA
HETATM   35  H   UNK N   1     -26.504  30.334 -17.201  0.00  0.00     0.218 HD
ENDBRANCH  29  34
ENDBRANCH   3  26
BRANCH   7  36
HETATM   36  O   UNK N   1     -18.412  22.594 -16.221  0.00  0.00    -0.360 OA
HETATM   37  H   UNK N   1     -18.548  21.637 -16.274  0.00  0.00     0.217 HD
ENDBRANCH   7  36
BRANCH  10  38
HETATM   38  O   UNK N   1     -18.929  23.795 -11.642  0.00  0.00    -0.361 OA
HETATM   39  H   UNK N   1     -18.337  24.417 -11.194  0.00  0.00     0.217 HD
ENDBRANCH  10  38
TORSDOF 11
ENDMDL
MODEL 3
REMARK VINA RESULT:      -7.2     10.891     13.974
REMARK  11 active torsions:
REMARK  status: ('A' for Active; 'I' for Inactive)
REMARK    1  A    between atoms: O_2  and  C_11 
REMARK    2  A    between atoms: O_2  and  C_23 
REMARK    3  A    between atoms: O_3  and  C_17 
REMARK    4  A    between atoms: O_4  and  C_22 
REMARK    5  A    between atoms: O_5  and  C_24 
REMARK    6  A    between atoms: O_7  and  C_26 
REMARK    7  A    between atoms: O_8  and  C_30 
REMARK    8  A    between atoms: O_9  and  C_31 
REMARK    9  A    between atoms: O_10  and  C_32 
REMARK   10  A    between atoms: C_12  and  C_16 
REMARK   11  A    between atoms: C_23  and  C_27 
ROOT
HETATM    1  O   UNK N   1     -23.238  24.905 -15.612  0.00  0.00    -0.338 OA
HETATM    2  C   UNK N   1     -22.937  25.539 -13.327  0.00  0.00     0.170 C 
HETATM    3  C   UNK N   1     -22.346  25.520 -14.745  0.00  0.00     0.192 C 
HETATM    4  C   UNK N   1     -24.262  26.337 -13.363  0.00  0.00     0.080 C 
HETATM    5  C   UNK N   1     -25.138  25.896 -14.520  0.00  0.00     0.011 A 
HETATM    6  C   UNK N   1     -24.566  25.181 -15.599  0.00  0.00     0.081 A 
HETATM    7  C   UNK N   1     -26.510  26.207 -14.546  0.00  0.00     0.077 A 
HETATM    8  C   UNK N   1     -25.365  24.763 -16.667  0.00  0.00     0.074 A 
HETATM    9  C   UNK N   1     -27.300  25.790 -15.631  0.00  0.00     0.073 A 
HETATM   10  C   UNK N   1     -26.731  25.071 -16.687  0.00  0.00     0.071 A 
ENDROOT
BRANCH   2  11
HETATM   11  O   UNK N   1     -23.215  24.242 -12.950  0.00  0.00    -0.309 OA
BRANCH  11  12
HETATM   12  C   UNK N   1     -23.953  23.892 -11.866  0.00  0.00     0.294 C 
HETATM   13  O   UNK N   1     -23.738  24.401 -10.776  0.00  0.00    -0.259 OA
BRANCH  12  14
HETATM   14  C   UNK N   1     -25.015  22.881 -12.031  0.00  0.00     0.045 A 
HETATM   15  C   UNK N   1     -24.822  21.549 -11.632  0.00  0.00     0.057 A 
HETATM   16  C   UNK N   1     -25.845  20.603 -11.812  0.00  0.00     0.102 A 
HETATM   17  C   UNK N   1     -27.076  20.999 -12.371  0.00  0.00     0.132 A 
HETATM   18  C   UNK N   1     -27.275  22.334 -12.747  0.00  0.00     0.102 A 
HETATM   19  C   UNK N   1     -26.243  23.265 -12.586  0.00  0.00     0.057 A 
BRANCH  16  20
HETATM   20  O   UNK N   1     -25.649  19.317 -11.453  0.00  0.00    -0.358 OA
HETATM   21  H   UNK N   1     -25.395  18.641 -12.096  0.00  0.00     0.218 HD
ENDBRANCH  16  20
BRANCH  17  22
HETATM   22  O   UNK N   1     -28.075  20.109 -12.553  0.00  0.00    -0.356 OA
HETATM   23  H   UNK N   1     -28.651  19.823 -11.830  0.00  0.00     0.218 HD
ENDBRANCH  17  22
BRANCH  18  24
HETATM   24  O   UNK N   1     -28.461  22.719 -13.262  0.00  0.00    -0.358 OA
HETATM   25  H   UNK N   1     -29.282  22.253 -13.047  0.00  0.00     0.218 HD
ENDBRANCH  18  24
ENDBRANCH  12  14
ENDBRANCH  11  12
ENDBRANCH   2  11
BRANCH   3  26
HETATM   26  C   UNK N   1     -20.997  24.834 -14.793  0.00  0.00    -0.024 A 
HETATM   27  C   UNK N   1     -20.393  24.488 -16.017  0.00  0.00     0.049 A 
HETATM   28  C   UNK N   1     -19.132  23.865 -16.036  0.00  0.00     0.099 A 
HETATM   29  C   UNK N   1     -18.476  23.580 -14.829  0.00  0.00     0.098 A 
HETATM   30  C   UNK N   1     -19.081  23.918 -13.611  0.00  0.00     0.040 A 
HETATM   31  C   UNK N   1     -20.330  24.541 -13.593  0.00  0.00     0.013 A 
BRANCH  28  32
HETATM   32  O   UNK N   1     -18.543  23.542 -17.207  0.00  0.00    -0.358 OA
HETATM   33  H   UNK N   1     -18.171  24.215 -17.796  0.00  0.00     0.218 HD
ENDBRANCH  28  32
BRANCH  29  34
HETATM   34  O   UNK N   1     -17.267  22.982 -14.849  0.00  0.00    -0.358 OA
HETATM   35  H   UNK N   1     -17.007  22.336 -14.175  0.00  0.00     0.218 HD
ENDBRANCH  29  34
ENDBRANCH   3  26
BRANCH   7  36
HETATM   36  O   UNK N   1     -27.065  26.895 -13.527  0.00  0.00    -0.360 OA
HETATM   37  H   UNK N   1     -27.257  27.841 -13.595  0.00  0.00     0.217 HD
ENDBRANCH   7  36
BRANCH  10  38
HETATM   38  O   UNK N   1     -27.506  24.687 -17.723  0.00  0.00    -0.361 OA
HETATM   39  H   UNK N   1     -27.203  24.031 -18.368  0.00  0.00     0.217 HD
ENDBRANCH  10  38
TORSDOF 11
ENDMDL
MODEL 4
REMARK VINA RESULT:      -7.2      5.163      8.960
REMARK  11 active torsions:
REMARK  status: ('A' for Active; 'I' for Inactive)
REMARK    1  A    between atoms: O_2  and  C_11 
REMARK    2  A    between atoms: O_2  and  C_23 
REMARK    3  A    between atoms: O_3  and  C_17 
REMARK    4  A    between atoms: O_4  and  C_22 
REMARK    5  A    between atoms: O_5  and  C_24 
REMARK    6  A    between atoms: O_7  and  C_26 
REMARK    7  A    between atoms: O_8  and  C_30 
REMARK    8  A    between atoms: O_9  and  C_31 
REMARK    9  A    between atoms: O_10  and  C_32 
REMARK   10  A    between atoms: C_12  and  C_16 
REMARK   11  A    between atoms: C_23  and  C_27 
ROOT
HETATM    1  O   UNK N   1     -18.380  22.779 -12.602  0.00  0.00    -0.338 OA
HETATM    2  C   UNK N   1     -19.684  23.856 -10.913  0.00  0.00     0.170 C 
HETATM    3  C   UNK N   1     -18.318  23.274 -11.308  0.00  0.00     0.192 C 
HETATM    4  C   UNK N   1     -20.026  25.003 -11.893  0.00  0.00     0.080 C 
HETATM    5  C   UNK N   1     -19.793  24.584 -13.333  0.00  0.00     0.011 A 
HETATM    6  C   UNK N   1     -18.973  23.465 -13.612  0.00  0.00     0.081 A 
HETATM    7  C   UNK N   1     -20.364  25.306 -14.396  0.00  0.00     0.077 A 
HETATM    8  C   UNK N   1     -18.756  23.066 -14.933  0.00  0.00     0.074 A 
HETATM    9  C   UNK N   1     -20.130  24.900 -15.721  0.00  0.00     0.073 A 
HETATM   10  C   UNK N   1     -19.330  23.785 -15.990  0.00  0.00     0.071 A 
ENDROOT
BRANCH   2  11
HETATM   11  O   UNK N   1     -20.636  22.867 -11.044  0.00  0.00    -0.309 OA
BRANCH  11  12
HETATM   12  C   UNK N   1     -21.846  22.871 -10.430  0.00  0.00     0.294 C 
HETATM   13  O   UNK N   1     -22.862  22.601 -11.054  0.00  0.00    -0.259 OA
BRANCH  12  14
HETATM   14  C   UNK N   1     -21.909  23.211  -8.996  0.00  0.00     0.045 A 
HETATM   15  C   UNK N   1     -22.507  24.402  -8.554  0.00  0.00     0.057 A 
HETATM   16  C   UNK N   1     -22.542  24.707  -7.183  0.00  0.00     0.102 A 
HETATM   17  C   UNK N   1     -21.999  23.804  -6.248  0.00  0.00     0.132 A 
HETATM   18  C   UNK N   1     -21.423  22.605  -6.690  0.00  0.00     0.102 A 
HETATM   19  C   UNK N   1     -21.372  22.318  -8.057  0.00  0.00     0.057 A 
BRANCH  16  20
HETATM   20  O   UNK N   1     -23.093  25.866  -6.762  0.00  0.00    -0.358 OA
HETATM   21  H   UNK N   1     -22.885  26.711  -7.182  0.00  0.00     0.218 HD
ENDBRANCH  16  20
BRANCH  17  22
HETATM   22  O   UNK N   1     -22.022  24.076  -4.926  0.00  0.00    -0.356 OA
HETATM   23  H   UNK N   1     -21.263  23.910  -4.350  0.00  0.00     0.218 HD
ENDBRANCH  17  22
BRANCH  18  24
HETATM   24  O   UNK N   1     -20.923  21.729  -5.793  0.00  0.00    -0.358 OA
HETATM   25  H   UNK N   1     -20.345  21.001  -6.064  0.00  0.00     0.218 HD
ENDBRANCH  18  24
ENDBRANCH  12  14
ENDBRANCH  11  12
ENDBRANCH   2  11
BRANCH   3  26
HETATM   26  C   UNK N   1     -17.854  22.200 -10.347  0.00  0.00    -0.024 A 
HETATM   27  C   UNK N   1     -18.165  22.259  -8.975  0.00  0.00     0.049 A 
HETATM   28  C   UNK N   1     -17.736  21.241  -8.105  0.00  0.00     0.099 A 
HETATM   29  C   UNK N   1     -16.987  20.166  -8.604  0.00  0.00     0.098 A 
HETATM   30  C   UNK N   1     -16.671  20.111  -9.969  0.00  0.00     0.040 A 
HETATM   31  C   UNK N   1     -17.102  21.118 -10.833  0.00  0.00     0.013 A 
BRANCH  28  32
HETATM   32  O   UNK N   1     -18.040  21.287  -6.791  0.00  0.00    -0.358 OA
HETATM   33  H   UNK N   1     -17.421  20.984  -6.111  0.00  0.00     0.218 HD
ENDBRANCH  28  32
BRANCH  29  34
HETATM   34  O   UNK N   1     -16.575  19.190  -7.768  0.00  0.00    -0.358 OA
HETATM   35  H   UNK N   1     -15.793  19.298  -7.206  0.00  0.00     0.218 HD
ENDBRANCH  29  34
ENDBRANCH   3  26
BRANCH   7  36
HETATM   36  O   UNK N   1     -21.142  26.379 -14.142  0.00  0.00    -0.360 OA
HETATM   37  H   UNK N   1     -21.360  27.025 -14.829  0.00  0.00     0.217 HD
ENDBRANCH   7  36
BRANCH  10  38
HETATM   38  O   UNK N   1     -19.111  23.417 -17.269  0.00  0.00    -0.361 OA
HETATM   39  H   UNK N   1     -18.914  22.499 -17.508  0.00  0.00     0.217 HD
ENDBRANCH  10  38
TORSDOF 11
ENDMDL
MODEL 5
REMARK VINA RESULT:      -7.1      5.627     10.728
REMARK  11 active torsions:
REMARK  status: ('A' for Active; 'I' for Inactive)
REMARK    1  A    between atoms: O_2  and  C_11 
REMARK    2  A    between atoms: O_2  and  C_23 
REMARK    3  A    between atoms: O_3  and  C_17 
REMARK    4  A    between atoms: O_4  and  C_22 
REMARK    5  A    between atoms: O_5  and  C_24 
REMARK    6  A    between atoms: O_7  and  C_26 
REMARK    7  A    between atoms: O_8  and  C_30 
REMARK    8  A    between atoms: O_9  and  C_31 
REMARK    9  A    between atoms: O_10  and  C_32 
REMARK   10  A    between atoms: C_12  and  C_16 
REMARK   11  A    between atoms: C_23  and  C_27 
ROOT
HETATM    1  O   UNK N   1     -18.612  22.984 -12.769  0.00  0.00    -0.338 OA
HETATM    2  C   UNK N   1     -19.951  24.031 -11.088  0.00  0.00     0.170 C 
HETATM    3  C   UNK N   1     -18.571  23.473 -11.472  0.00  0.00     0.192 C 
HETATM    4  C   UNK N   1     -20.302  25.176 -12.066  0.00  0.00     0.080 C 
HETATM    5  C   UNK N   1     -20.046  24.769 -13.505  0.00  0.00     0.011 A 
HETATM    6  C   UNK N   1     -19.205  23.666 -13.781  0.00  0.00     0.081 A 
HETATM    7  C   UNK N   1     -20.618  25.487 -14.571  0.00  0.00     0.077 A 
HETATM    8  C   UNK N   1     -18.967  23.277 -15.102  0.00  0.00     0.074 A 
HETATM    9  C   UNK N   1     -20.363  25.093 -15.895  0.00  0.00     0.073 A 
HETATM   10  C   UNK N   1     -19.543  23.992 -16.161  0.00  0.00     0.071 A 
ENDROOT
BRANCH   2  11
HETATM   11  O   UNK N   1     -20.884  23.026 -11.234  0.00  0.00    -0.309 OA
BRANCH  11  12
HETATM   12  C   UNK N   1     -21.967  22.853 -10.434  0.00  0.00     0.294 C 
HETATM   13  O   UNK N   1     -21.837  22.766  -9.222  0.00  0.00    -0.259 OA
BRANCH  12  14
HETATM   14  C   UNK N   1     -23.300  22.768 -11.059  0.00  0.00     0.045 A 
HETATM   15  C   UNK N   1     -24.027  23.924 -11.386  0.00  0.00     0.057 A 
HETATM   16  C   UNK N   1     -25.300  23.816 -11.969  0.00  0.00     0.102 A 
HETATM   17  C   UNK N   1     -25.838  22.544 -12.250  0.00  0.00     0.132 A 
HETATM   18  C   UNK N   1     -25.101  21.392 -11.944  0.00  0.00     0.102 A 
HETATM   19  C   UNK N   1     -23.844  21.508 -11.343  0.00  0.00     0.057 A 
BRANCH  16  20
HETATM   20  O   UNK N   1     -26.010  24.928 -12.258  0.00  0.00    -0.358 OA
HETATM   21  H   UNK N   1     -26.638  25.309 -11.630  0.00  0.00     0.218 HD
ENDBRANCH  16  20
BRANCH  17  22
HETATM   22  O   UNK N   1     -27.059  22.415 -12.812  0.00  0.00    -0.356 OA
HETATM   23  H   UNK N   1     -27.869  22.363 -12.285  0.00  0.00     0.218 HD
ENDBRANCH  17  22
BRANCH  18  24
HETATM   24  O   UNK N   1     -25.605  20.174 -12.234  0.00  0.00    -0.358 OA
HETATM   25  H   UNK N   1     -25.926  19.956 -13.121  0.00  0.00     0.218 HD
ENDBRANCH  18  24
ENDBRANCH  12  14
ENDBRANCH  11  12
ENDBRANCH   2  11
BRANCH   3  26
HETATM   26  C   UNK N   1     -18.099  22.402 -10.512  0.00  0.00    -0.024 A 
HETATM   27  C   UNK N   1     -18.391  22.470  -9.135  0.00  0.00     0.049 A 
HETATM   28  C   UNK N   1     -17.955  21.455  -8.266  0.00  0.00     0.099 A 
HETATM   29  C   UNK N   1     -17.218  20.372  -8.770  0.00  0.00     0.098 A 
HETATM   30  C   UNK N   1     -16.922  20.309 -10.139  0.00  0.00     0.040 A 
HETATM   31  C   UNK N   1     -17.361  21.313 -11.002  0.00  0.00     0.013 A 
BRANCH  28  32
HETATM   32  O   UNK N   1     -18.241  21.509  -6.948  0.00  0.00    -0.358 OA
HETATM   33  H   UNK N   1     -18.409  22.349  -6.496  0.00  0.00     0.218 HD
ENDBRANCH  28  32
BRANCH  29  34
HETATM   34  O   UNK N   1     -16.800  19.399  -7.934  0.00  0.00    -0.358 OA
HETATM   35  H   UNK N   1     -16.080  19.545  -7.304  0.00  0.00     0.218 HD
ENDBRANCH  29  34
ENDBRANCH   3  26
BRANCH   7  36
HETATM   36  O   UNK N   1     -21.416  26.546 -14.320  0.00  0.00    -0.360 OA
HETATM   37  H   UNK N   1     -21.255  27.141 -13.574  0.00  0.00     0.217 HD
ENDBRANCH   7  36
BRANCH  10  38
HETATM   38  O   UNK N   1     -19.304  23.635 -17.440  0.00  0.00    -0.361 OA
HETATM   39  H   UNK N   1     -18.411  23.425 -17.751  0.00  0.00     0.217 HD
ENDBRANCH  10  38
TORSDOF 11
ENDMDL
MODEL 6
REMARK VINA RESULT:      -7.1      6.777     11.506
REMARK  11 active torsions:
REMARK  status: ('A' for Active; 'I' for Inactive)
REMARK    1  A    between atoms: O_2  and  C_11 
REMARK    2  A    between atoms: O_2  and  C_23 
REMARK    3  A    between atoms: O_3  and  C_17 
REMARK    4  A    between atoms: O_4  and  C_22 
REMARK    5  A    between atoms: O_5  and  C_24 
REMARK    6  A    between atoms: O_7  and  C_26 
REMARK    7  A    between atoms: O_8  and  C_30 
REMARK    8  A    between atoms: O_9  and  C_31 
REMARK    9  A    between atoms: O_10  and  C_32 
REMARK   10  A    between atoms: C_12  and  C_16 
REMARK   11  A    between atoms: C_23  and  C_27 
ROOT
HETATM    1  O   UNK N   1     -19.730  23.827 -13.636  0.00  0.00    -0.338 OA
HETATM    2  C   UNK N   1     -20.839  24.343 -11.582  0.00  0.00     0.170 C 
HETATM    3  C   UNK N   1     -19.503  24.066 -12.289  0.00  0.00     0.192 C 
HETATM    4  C   UNK N   1     -21.482  25.591 -12.230  0.00  0.00     0.080 C 
HETATM    5  C   UNK N   1     -21.455  25.500 -13.745  0.00  0.00     0.011 A 
HETATM    6  C   UNK N   1     -20.568  24.597 -14.376  0.00  0.00     0.081 A 
HETATM    7  C   UNK N   1     -22.286  26.318 -14.532  0.00  0.00     0.077 A 
HETATM    8  C   UNK N   1     -20.538  24.500 -15.770  0.00  0.00     0.074 A 
HETATM    9  C   UNK N   1     -22.239  26.218 -15.932  0.00  0.00     0.073 A 
HETATM   10  C   UNK N   1     -21.371  25.313 -16.550  0.00  0.00     0.071 A 
ENDROOT
BRANCH   2  11
HETATM   11  O   UNK N   1     -21.673  23.263 -11.784  0.00  0.00    -0.309 OA
BRANCH  11  12
HETATM   12  C   UNK N   1     -22.563  22.792 -10.874  0.00  0.00     0.294 C 
HETATM   13  O   UNK N   1     -22.268  22.729  -9.690  0.00  0.00    -0.259 OA
BRANCH  12  14
HETATM   14  C   UNK N   1     -23.890  22.354 -11.347  0.00  0.00     0.045 A 
HETATM   15  C   UNK N   1     -24.763  23.242 -11.996  0.00  0.00     0.057 A 
HETATM   16  C   UNK N   1     -26.026  22.802 -12.425  0.00  0.00     0.102 A 
HETATM   17  C   UNK N   1     -26.408  21.461 -12.225  0.00  0.00     0.132 A 
HETATM   18  C   UNK N   1     -25.526  20.570 -11.598  0.00  0.00     0.102 A 
HETATM   19  C   UNK N   1     -24.279  21.021 -11.154  0.00  0.00     0.057 A 
BRANCH  16  20
HETATM   20  O   UNK N   1     -26.874  23.664 -13.024  0.00  0.00    -0.358 OA
HETATM   21  H   UNK N   1     -27.105  24.514 -12.624  0.00  0.00     0.218 HD
ENDBRANCH  16  20
BRANCH  17  22
HETATM   22  O   UNK N   1     -27.616  21.015 -12.630  0.00  0.00    -0.356 OA
HETATM   23  H   UNK N   1     -28.376  21.603 -12.735  0.00  0.00     0.218 HD
ENDBRANCH  17  22
BRANCH  18  24
HETATM   24  O   UNK N   1     -25.881  19.280 -11.428  0.00  0.00    -0.358 OA
HETATM   25  H   UNK N   1     -25.835  18.641 -12.154  0.00  0.00     0.218 HD
ENDBRANCH  18  24
ENDBRANCH  12  14
ENDBRANCH  11  12
ENDBRANCH   2  11
BRANCH   3  26
HETATM   26  C   UNK N   1     -18.752  22.910 -11.662  0.00  0.00    -0.024 A 
HETATM   27  C   UNK N   1     -18.485  21.730 -12.384  0.00  0.00     0.049 A 
HETATM   28  C   UNK N   1     -17.773  20.676 -11.784  0.00  0.00     0.099 A 
HETATM   29  C   UNK N   1     -17.334  20.797 -10.457  0.00  0.00     0.098 A 
HETATM   30  C   UNK N   1     -17.607  21.968  -9.736  0.00  0.00     0.040 A 
HETATM   31  C   UNK N   1     -18.308  23.016 -10.334  0.00  0.00     0.013 A 
BRANCH  28  32
HETATM   32  O   UNK N   1     -17.505  19.549 -12.474  0.00  0.00    -0.358 OA
HETATM   33  H   UNK N   1     -18.183  18.877 -12.641  0.00  0.00     0.218 HD
ENDBRANCH  28  32
BRANCH  29  34
HETATM   34  O   UNK N   1     -16.652  19.785  -9.882  0.00  0.00    -0.358 OA
HETATM   35  H   UNK N   1     -15.693  19.827  -9.750  0.00  0.00     0.218 HD
ENDBRANCH  29  34
ENDBRANCH   3  26
BRANCH   7  36
HETATM   36  O   UNK N   1     -23.131  27.189 -13.941  0.00  0.00    -0.360 OA
HETATM   37  H   UNK N   1     -22.812  27.899 -13.365  0.00  0.00     0.217 HD
ENDBRANCH   7  36
BRANCH  10  38
HETATM   38  O   UNK N   1     -21.335  25.238 -17.897  0.00  0.00    -0.361 OA
HETATM   39  H   UNK N   1     -21.412  24.392 -18.362  0.00  0.00     0.217 HD
ENDBRANCH  10  38
TORSDOF 11
ENDMDL
MODEL 7
REMARK VINA RESULT:      -7.1     10.345     15.679
REMARK  11 active torsions:
REMARK  status: ('A' for Active; 'I' for Inactive)
REMARK    1  A    between atoms: O_2  and  C_11 
REMARK    2  A    between atoms: O_2  and  C_23 
REMARK    3  A    between atoms: O_3  and  C_17 
REMARK    4  A    between atoms: O_4  and  C_22 
REMARK    5  A    between atoms: O_5  and  C_24 
REMARK    6  A    between atoms: O_7  and  C_26 
REMARK    7  A    between atoms: O_8  and  C_30 
REMARK    8  A    between atoms: O_9  and  C_31 
REMARK    9  A    between atoms: O_10  and  C_32 
REMARK   10  A    between atoms: C_12  and  C_16 
REMARK   11  A    between atoms: C_23  and  C_27 
ROOT
HETATM    1  O   UNK N   1     -21.751  25.257 -14.093  0.00  0.00    -0.338 OA
HETATM    2  C   UNK N   1     -22.249  25.619 -16.403  0.00  0.00     0.170 C 
HETATM    3  C   UNK N   1     -22.285  26.185 -14.975  0.00  0.00     0.192 C 
HETATM    4  C   UNK N   1     -20.775  25.335 -16.777  0.00  0.00     0.080 C 
HETATM    5  C   UNK N   1     -20.062  24.583 -15.668  0.00  0.00     0.011 A 
HETATM    6  C   UNK N   1     -20.607  24.579 -14.363  0.00  0.00     0.081 A 
HETATM    7  C   UNK N   1     -18.854  23.907 -15.916  0.00  0.00     0.077 A 
HETATM    8  C   UNK N   1     -19.962  23.885 -13.335  0.00  0.00     0.074 A 
HETATM    9  C   UNK N   1     -18.210  23.222 -14.872  0.00  0.00     0.073 A 
HETATM   10  C   UNK N   1     -18.761  23.209 -13.587  0.00  0.00     0.071 A 
ENDROOT
BRANCH   2  11
HETATM   11  O   UNK N   1     -22.944  24.428 -16.419  0.00  0.00    -0.309 OA
BRANCH  11  12
HETATM   12  C   UNK N   1     -23.871  24.086 -17.350  0.00  0.00     0.294 C 
HETATM   13  O   UNK N   1     -23.590  23.313 -18.254  0.00  0.00    -0.259 OA
BRANCH  12  14
HETATM   14  C   UNK N   1     -25.222  24.670 -17.249  0.00  0.00     0.045 A 
HETATM   15  C   UNK N   1     -25.698  25.579 -18.207  0.00  0.00     0.057 A 
HETATM   16  C   UNK N   1     -26.983  26.130 -18.080  0.00  0.00     0.102 A 
HETATM   17  C   UNK N   1     -27.807  25.750 -17.002  0.00  0.00     0.132 A 
HETATM   18  C   UNK N   1     -27.339  24.825 -16.059  0.00  0.00     0.102 A 
HETATM   19  C   UNK N   1     -26.050  24.298 -16.180  0.00  0.00     0.057 A 
BRANCH  16  20
HETATM   20  O   UNK N   1     -27.429  27.025 -18.987  0.00  0.00    -0.358 OA
HETATM   21  H   UNK N   1     -27.004  27.885 -19.106  0.00  0.00     0.218 HD
ENDBRANCH  16  20
BRANCH  17  22
HETATM   22  O   UNK N   1     -29.047  26.265 -16.859  0.00  0.00    -0.356 OA
HETATM   23  H   UNK N   1     -29.207  27.216 -16.789  0.00  0.00     0.218 HD
ENDBRANCH  17  22
BRANCH  18  24
HETATM   24  O   UNK N   1     -28.135  24.442 -15.039  0.00  0.00    -0.358 OA
HETATM   25  H   UNK N   1     -28.577  23.581 -15.036  0.00  0.00     0.218 HD
ENDBRANCH  18  24
ENDBRANCH  12  14
ENDBRANCH  11  12
ENDBRANCH   2  11
BRANCH   3  26
HETATM   26  C   UNK N   1     -23.684  26.580 -14.551  0.00  0.00    -0.024 A 
HETATM   27  C   UNK N   1     -24.325  25.955 -13.464  0.00  0.00     0.049 A 
HETATM   28  C   UNK N   1     -25.619  26.350 -13.080  0.00  0.00     0.099 A 
HETATM   29  C   UNK N   1     -26.278  27.365 -13.789  0.00  0.00     0.098 A 
HETATM   30  C   UNK N   1     -25.643  27.981 -14.876  0.00  0.00     0.040 A 
HETATM   31  C   UNK N   1     -24.356  27.594 -15.252  0.00  0.00     0.013 A 
BRANCH  28  32
HETATM   32  O   UNK N   1     -26.233  25.762 -12.032  0.00  0.00    -0.358 OA
HETATM   33  H   UNK N   1     -27.191  25.619 -12.016  0.00  0.00     0.218 HD
ENDBRANCH  28  32
BRANCH  29  34
HETATM   34  O   UNK N   1     -27.520  27.743 -13.420  0.00  0.00    -0.358 OA
HETATM   35  H   UNK N   1     -28.200  27.094 -13.186  0.00  0.00     0.218 HD
ENDBRANCH  29  34
ENDBRANCH   3  26
BRANCH   7  36
HETATM   36  O   UNK N   1     -18.320  23.911 -17.156  0.00  0.00    -0.360 OA
HETATM   37  H   UNK N   1     -17.985  23.103 -17.570  0.00  0.00     0.217 HD
ENDBRANCH   7  36
BRANCH  10  38
HETATM   38  O   UNK N   1     -18.123  22.551 -12.596  0.00  0.00    -0.361 OA
HETATM   39  H   UNK N   1     -18.231  21.597 -12.467  0.00  0.00     0.217 HD
ENDBRANCH  10  38
TORSDOF 11
ENDMDL
MODEL 8
REMARK VINA RESULT:      -7.0     10.973     15.649
REMARK  11 active torsions:
REMARK  status: ('A' for Active; 'I' for Inactive)
REMARK    1  A    between atoms: O_2  and  C_11 
REMARK    2  A    between atoms: O_2  and  C_23 
REMARK    3  A    between atoms: O_3  and  C_17 
REMARK    4  A    between atoms: O_4  and  C_22 
REMARK    5  A    between atoms: O_5  and  C_24 
REMARK    6  A    between atoms: O_7  and  C_26 
REMARK    7  A    between atoms: O_8  and  C_30 
REMARK    8  A    between atoms: O_9  and  C_31 
REMARK    9  A    between atoms: O_10  and  C_32 
REMARK   10  A    between atoms: C_12  and  C_16 
REMARK   11  A    between atoms: C_23  and  C_27 
ROOT
HETATM    1  O   UNK N   1     -24.071  25.878 -17.820  0.00  0.00    -0.338 OA
HETATM    2  C   UNK N   1     -22.796  27.359 -16.443  0.00  0.00     0.170 C 
HETATM    3  C   UNK N   1     -23.134  26.899 -17.870  0.00  0.00     0.192 C 
HETATM    4  C   UNK N   1     -24.093  27.876 -15.779  0.00  0.00     0.080 C 
HETATM    5  C   UNK N   1     -25.242  26.906 -15.988  0.00  0.00     0.011 A 
HETATM    6  C   UNK N   1     -25.161  25.935 -17.013  0.00  0.00     0.081 A 
HETATM    7  C   UNK N   1     -26.398  26.975 -15.190  0.00  0.00     0.077 A 
HETATM    8  C   UNK N   1     -26.209  25.033 -17.210  0.00  0.00     0.074 A 
HETATM    9  C   UNK N   1     -27.450  26.069 -15.405  0.00  0.00     0.073 A 
HETATM   10  C   UNK N   1     -27.357  25.101 -16.410  0.00  0.00     0.071 A 
ENDROOT
BRANCH   2  11
HETATM   11  O   UNK N   1     -22.340  26.270 -15.729  0.00  0.00    -0.309 OA
BRANCH  11  12
HETATM   12  C   UNK N   1     -21.283  26.291 -14.877  0.00  0.00     0.294 C 
HETATM   13  O   UNK N   1     -21.229  27.112 -13.973  0.00  0.00    -0.259 OA
BRANCH  12  14
HETATM   14  C   UNK N   1     -20.203  25.306 -15.067  0.00  0.00     0.045 A 
HETATM   15  C   UNK N   1     -19.398  25.319 -16.218  0.00  0.00     0.057 A 
HETATM   16  C   UNK N   1     -18.383  24.361 -16.380  0.00  0.00     0.102 A 
HETATM   17  C   UNK N   1     -18.157  23.400 -15.375  0.00  0.00     0.132 A 
HETATM   18  C   UNK N   1     -18.947  23.403 -14.218  0.00  0.00     0.102 A 
HETATM   19  C   UNK N   1     -19.970  24.345 -14.073  0.00  0.00     0.057 A 
BRANCH  16  20
HETATM   20  O   UNK N   1     -17.628  24.359 -17.499  0.00  0.00    -0.358 OA
HETATM   21  H   UNK N   1     -16.948  25.029 -17.656  0.00  0.00     0.218 HD
ENDBRANCH  16  20
BRANCH  17  22
HETATM   22  O   UNK N   1     -17.188  22.470 -15.508  0.00  0.00    -0.356 OA
HETATM   23  H   UNK N   1     -16.356  22.515 -15.016  0.00  0.00     0.218 HD
ENDBRANCH  17  22
BRANCH  18  24
HETATM   24  O   UNK N   1     -18.717  22.497 -13.244  0.00  0.00    -0.358 OA
HETATM   25  H   UNK N   1     -18.314  21.638 -13.435  0.00  0.00     0.218 HD
ENDBRANCH  18  24
ENDBRANCH  12  14
ENDBRANCH  11  12
ENDBRANCH   2  11
BRANCH   3  26
HETATM   26  C   UNK N   1     -21.904  26.457 -18.635  0.00  0.00    -0.024 A 
HETATM   27  C   UNK N   1     -21.757  25.130 -19.084  0.00  0.00     0.049 A 
HETATM   28  C   UNK N   1     -20.612  24.747 -19.806  0.00  0.00     0.099 A 
HETATM   29  C   UNK N   1     -19.607  25.689 -20.072  0.00  0.00     0.098 A 
HETATM   30  C   UNK N   1     -19.751  27.008 -19.618  0.00  0.00     0.040 A 
HETATM   31  C   UNK N   1     -20.890  27.388 -18.908  0.00  0.00     0.013 A 
BRANCH  28  32
HETATM   32  O   UNK N   1     -20.471  23.480 -20.248  0.00  0.00    -0.358 OA
HETATM   33  H   UNK N   1     -20.593  23.247 -21.180  0.00  0.00     0.218 HD
ENDBRANCH  28  32
BRANCH  29  34
HETATM   34  O   UNK N   1     -18.509  25.321 -20.764  0.00  0.00    -0.358 OA
HETATM   35  H   UNK N   1     -17.871  24.686 -20.406  0.00  0.00     0.218 HD
ENDBRANCH  29  34
ENDBRANCH   3  26
BRANCH   7  36
HETATM   36  O   UNK N   1     -26.491  27.903 -14.213  0.00  0.00    -0.360 OA
HETATM   37  H   UNK N   1     -27.210  28.550 -14.191  0.00  0.00     0.217 HD
ENDBRANCH   7  36
BRANCH  10  38
HETATM   38  O   UNK N   1     -28.382  24.246 -16.606  0.00  0.00    -0.361 OA
HETATM   39  H   UNK N   1     -28.603  23.559 -15.959  0.00  0.00     0.217 HD
ENDBRANCH  10  38
TORSDOF 11
ENDMDL
MODEL 9
REMARK VINA RESULT:      -6.9      7.177     12.446
REMARK  11 active torsions:
REMARK  status: ('A' for Active; 'I' for Inactive)
REMARK    1  A    between atoms: O_2  and  C_11 
REMARK    2  A    between atoms: O_2  and  C_23 
REMARK    3  A    between atoms: O_3  and  C_17 
REMARK    4  A    between atoms: O_4  and  C_22 
REMARK    5  A    between atoms: O_5  and  C_24 
REMARK    6  A    between atoms: O_7  and  C_26 
REMARK    7  A    between atoms: O_8  and  C_30 
REMARK    8  A    between atoms: O_9  and  C_31 
REMARK    9  A    between atoms: O_10  and  C_32 
REMARK   10  A    between atoms: C_12  and  C_16 
REMARK   11  A    between atoms: C_23  and  C_27 
ROOT
HETATM    1  O   UNK N   1     -22.615  25.154 -14.532  0.00  0.00    -0.338 OA
HETATM    2  C   UNK N   1     -20.301  25.570 -14.099  0.00  0.00     0.170 C 
HETATM    3  C   UNK N   1     -21.492  25.787 -15.045  0.00  0.00     0.192 C 
HETATM    4  C   UNK N   1     -20.656  26.177 -12.722  0.00  0.00     0.080 C 
HETATM    5  C   UNK N   1     -22.041  25.748 -12.272  0.00  0.00     0.011 A 
HETATM    6  C   UNK N   1     -22.959  25.241 -13.222  0.00  0.00     0.081 A 
HETATM    7  C   UNK N   1     -22.432  25.868 -10.927  0.00  0.00     0.077 A 
HETATM    8  C   UNK N   1     -24.234  24.836 -12.819  0.00  0.00     0.074 A 
HETATM    9  C   UNK N   1     -23.721  25.468 -10.536  0.00  0.00     0.073 A 
HETATM   10  C   UNK N   1     -24.619  24.953 -11.477  0.00  0.00     0.071 A 
ENDROOT
BRANCH   2  11
HETATM   11  O   UNK N   1     -20.106  24.213 -13.945  0.00  0.00    -0.309 OA
BRANCH  11  12
HETATM   12  C   UNK N   1     -18.912  23.582 -14.087  0.00  0.00     0.294 C 
HETATM   13  O   UNK N   1     -18.270  23.690 -15.121  0.00  0.00    -0.259 OA
BRANCH  12  14
HETATM   14  C   UNK N   1     -18.411  22.761 -12.969  0.00  0.00     0.045 A 
HETATM   15  C   UNK N   1     -18.240  23.304 -11.685  0.00  0.00     0.057 A 
HETATM   16  C   UNK N   1     -17.749  22.503 -10.641  0.00  0.00     0.102 A 
HETATM   17  C   UNK N   1     -17.452  21.146 -10.876  0.00  0.00     0.132 A 
HETATM   18  C   UNK N   1     -17.646  20.600 -12.152  0.00  0.00     0.102 A 
HETATM   19  C   UNK N   1     -18.114  21.409 -13.192  0.00  0.00     0.057 A 
BRANCH  16  20
HETATM   20  O   UNK N   1     -17.559  23.033  -9.414  0.00  0.00    -0.358 OA
HETATM   21  H   UNK N   1     -18.120  22.795  -8.663  0.00  0.00     0.218 HD
ENDBRANCH  16  20
BRANCH  17  22
HETATM   22  O   UNK N   1     -16.981  20.357  -9.887  0.00  0.00    -0.356 OA
HETATM   23  H   UNK N   1     -17.069  19.394  -9.907  0.00  0.00     0.218 HD
ENDBRANCH  17  22
BRANCH  18  24
HETATM   24  O   UNK N   1     -17.384  19.295 -12.373  0.00  0.00    -0.358 OA
HETATM   25  H   UNK N   1     -16.901  18.759 -11.728  0.00  0.00     0.218 HD
ENDBRANCH  18  24
ENDBRANCH  12  14
ENDBRANCH  11  12
ENDBRANCH   2  11
BRANCH   3  26
HETATM   26  C   UNK N   1     -21.203  25.304 -16.450  0.00  0.00    -0.024 A 
HETATM   27  C   UNK N   1     -20.012  25.654 -17.116  0.00  0.00     0.049 A 
HETATM   28  C   UNK N   1     -19.759  25.180 -18.415  0.00  0.00     0.099 A 
HETATM   29  C   UNK N   1     -20.701  24.361 -19.056  0.00  0.00     0.098 A 
HETATM   30  C   UNK N   1     -21.889  24.019 -18.396  0.00  0.00     0.040 A 
HETATM   31  C   UNK N   1     -22.137  24.485 -17.104  0.00  0.00     0.013 A 
BRANCH  28  32
HETATM   32  O   UNK N   1     -18.615  25.504 -19.053  0.00  0.00    -0.358 OA
HETATM   33  H   UNK N   1     -18.479  26.377 -19.450  0.00  0.00     0.218 HD
ENDBRANCH  28  32
BRANCH  29  34
HETATM   34  O   UNK N   1     -20.457  23.908 -20.303  0.00  0.00    -0.358 OA
HETATM   35  H   UNK N   1     -20.189  22.992 -20.468  0.00  0.00     0.218 HD
ENDBRANCH  29  34
ENDBRANCH   3  26
BRANCH   7  36
HETATM   36  O   UNK N   1     -21.567  26.357 -10.013  0.00  0.00    -0.360 OA
HETATM   37  H   UNK N   1     -21.573  26.058  -9.093  0.00  0.00     0.217 HD
ENDBRANCH   7  36
BRANCH  10  38
HETATM   38  O   UNK N   1     -25.855  24.582 -11.083  0.00  0.00    -0.361 OA
HETATM   39  H   UNK N   1     -26.177  24.756 -10.186  0.00  0.00     0.217 HD
ENDBRANCH  10  38
TORSDOF 11
ENDMDL
