MODEL 1
REMARK VINA RESULT:      -7.4      0.000      0.000
REMARK  7 active torsions:
REMARK  status: ('A' for Active; 'I' for Inactive)
REMARK    1  A    between atoms: O_2  and  C_12 
REMARK    2  A    between atoms: O_3  and  C_14 
REMARK    3  A    between atoms: O_4  and  C_18 
REMARK    4  A    between atoms: O_5  and  C_20 
REMARK    5  A    between atoms: O_6  and  C_21 
REMARK    6  A    between atoms: O_7  and  C_22 
REMARK    7  A    between atoms: C_9  and  C_11 
ROOT
HETATM    1  O   UNK N   1     -17.904  23.696 -14.946  0.00  0.00    -0.306 OA
HETATM    2  C   UNK N   1     -19.502  25.099 -16.028  0.00  0.00     0.034 A 
HETATM    3  C   UNK N   1     -18.709  23.510 -13.908  0.00  0.00     0.119 A 
HETATM    4  C   UNK N   1     -18.238  24.459 -15.985  0.00  0.00     0.092 A 
HETATM    5  C   UNK N   1     -19.971  24.129 -13.863  0.00  0.00     0.101 A 
HETATM    6  C   UNK N   1     -20.365  24.925 -14.934  0.00  0.00     0.056 A 
HETATM    7  C   UNK N   1     -19.842  25.887 -17.160  0.00  0.00     0.081 A 
HETATM    8  C   UNK N   1     -17.333  24.617 -17.036  0.00  0.00     0.074 A 
HETATM    9  C   UNK N   1     -17.664  25.413 -18.139  0.00  0.00     0.071 A 
HETATM   10  C   UNK N   1     -18.912  26.041 -18.195  0.00  0.00     0.074 A 
ENDROOT
BRANCH   3  11
HETATM   11  C   UNK N   1     -18.286  22.618 -12.827  0.00  0.00     0.006 A 
HETATM   12  C   UNK N   1     -18.097  23.139 -11.544  0.00  0.00     0.054 A 
HETATM   13  C   UNK N   1     -17.648  22.314 -10.507  0.00  0.00     0.102 A 
HETATM   14  C   UNK N   1     -17.388  20.953 -10.760  0.00  0.00     0.132 A 
HETATM   15  C   UNK N   1     -17.582  20.432 -12.055  0.00  0.00     0.102 A 
HETATM   16  C   UNK N   1     -18.031  21.269 -13.082  0.00  0.00     0.054 A 
BRANCH  13  17
HETATM   17  O   UNK N   1     -17.459  22.824  -9.272  0.00  0.00    -0.358 OA
HETATM   18  H   UNK N   1     -17.909  23.630  -8.979  0.00  0.00     0.218 HD
ENDBRANCH  13  17
BRANCH  14  19
HETATM   19  O   UNK N   1     -16.946  20.143  -9.772  0.00  0.00    -0.356 OA
HETATM   20  H   UNK N   1     -17.183  20.283  -8.845  0.00  0.00     0.218 HD
ENDBRANCH  14  19
BRANCH  15  21
HETATM   21  O   UNK N   1     -17.334  19.134 -12.329  0.00  0.00    -0.358 OA
HETATM   22  H   UNK N   1     -16.536  18.684 -12.019  0.00  0.00     0.218 HD
ENDBRANCH  15  21
ENDBRANCH   3  11
BRANCH   5  23
HETATM   23  O   UNK N   1     -20.809  23.970 -12.815  0.00  0.00    -0.358 OA
HETATM   24  H   UNK N   1     -21.082  24.702 -12.246  0.00  0.00     0.218 HD
ENDBRANCH   5  23
BRANCH   7  25
HETATM   25  O   UNK N   1     -21.045  26.491 -17.293  0.00  0.00    -0.360 OA
HETATM   26  H   UNK N   1     -21.264  27.118 -17.993  0.00  0.00     0.217 HD
ENDBRANCH   7  25
BRANCH   9  27
HETATM   27  O   UNK N   1     -16.792  25.575 -19.154  0.00  0.00    -0.361 OA
HETATM   28  H   UNK N   1     -17.012  26.106 -19.933  0.00  0.00     0.217 HD
ENDBRANCH   9  27
TORSDOF 7
ENDMDL
MODEL 2
REMARK VINA RESULT:      -7.4      3.772      6.645
REMARK  7 active torsions:
REMARK  status: ('A' for Active; 'I' for Inactive)
REMARK    1  A    between atoms: O_2  and  C_12 
REMARK    2  A    between atoms: O_3  and  C_14 
REMARK    3  A    between atoms: O_4  and  C_18 
REMARK    4  A    between atoms: O_5  and  C_20 
REMARK    5  A    between atoms: O_6  and  C_21 
REMARK    6  A    between atoms: O_7  and  C_22 
REMARK    7  A    between atoms: C_9  and  C_11 
ROOT
HETATM    1  O   UNK N   1     -17.012  20.014  -9.767  0.00  0.00    -0.306 OA
HETATM    2  C   UNK N   1     -18.273  21.902 -10.500  0.00  0.00     0.034 A 
HETATM    3  C   UNK N   1     -17.235  20.307  -8.492  0.00  0.00     0.119 A 
HETATM    4  C   UNK N   1     -17.483  20.756 -10.767  0.00  0.00     0.092 A 
HETATM    5  C   UNK N   1     -17.991  21.441  -8.142  0.00  0.00     0.101 A 
HETATM    6  C   UNK N   1     -18.512  22.238  -9.158  0.00  0.00     0.056 A 
HETATM    7  C   UNK N   1     -18.783  22.661 -11.587  0.00  0.00     0.081 A 
HETATM    8  C   UNK N   1     -17.196  20.390 -12.083  0.00  0.00     0.074 A 
HETATM    9  C   UNK N   1     -17.681  21.154 -13.150  0.00  0.00     0.071 A 
HETATM   10  C   UNK N   1     -18.469  22.281 -12.898  0.00  0.00     0.074 A 
ENDROOT
BRANCH   3  11
HETATM   11  C   UNK N   1     -16.722  19.414  -7.452  0.00  0.00     0.006 A 
HETATM   12  C   UNK N   1     -15.347  19.185  -7.363  0.00  0.00     0.054 A 
HETATM   13  C   UNK N   1     -14.840  18.299  -6.406  0.00  0.00     0.102 A 
HETATM   14  C   UNK N   1     -15.722  17.638  -5.529  0.00  0.00     0.132 A 
HETATM   15  C   UNK N   1     -17.108  17.875  -5.621  0.00  0.00     0.102 A 
HETATM   16  C   UNK N   1     -17.601  18.763  -6.582  0.00  0.00     0.054 A 
BRANCH  13  17
HETATM   17  O   UNK N   1     -13.511  18.074  -6.331  0.00  0.00    -0.358 OA
HETATM   18  H   UNK N   1     -12.956  18.029  -7.123  0.00  0.00     0.218 HD
ENDBRANCH  13  17
BRANCH  14  19
HETATM   19  O   UNK N   1     -15.251  16.773  -4.604  0.00  0.00    -0.356 OA
HETATM   20  H   UNK N   1     -14.335  16.796  -4.294  0.00  0.00     0.218 HD
ENDBRANCH  14  19
BRANCH  15  21
HETATM   21  O   UNK N   1     -17.979  17.251  -4.799  0.00  0.00    -0.358 OA
HETATM   22  H   UNK N   1     -18.770  17.690  -4.455  0.00  0.00     0.218 HD
ENDBRANCH  15  21
ENDBRANCH   3  11
BRANCH   5  23
HETATM   23  O   UNK N   1     -18.227  21.775  -6.854  0.00  0.00    -0.358 OA
HETATM   24  H   UNK N   1     -17.772  22.504  -6.410  0.00  0.00     0.218 HD
ENDBRANCH   5  23
BRANCH   7  25
HETATM   25  O   UNK N   1     -19.579  23.740 -11.413  0.00  0.00    -0.360 OA
HETATM   26  H   UNK N   1     -20.362  23.752 -10.849  0.00  0.00     0.217 HD
ENDBRANCH   7  25
BRANCH   9  27
HETATM   27  O   UNK N   1     -17.402  20.809 -14.423  0.00  0.00    -0.361 OA
HETATM   28  H   UNK N   1     -17.822  21.254 -15.173  0.00  0.00     0.217 HD
ENDBRANCH   9  27
TORSDOF 7
ENDMDL
MODEL 3
REMARK VINA RESULT:      -7.4      3.780      6.653
REMARK  7 active torsions:
REMARK  status: ('A' for Active; 'I' for Inactive)
REMARK    1  A    between atoms: O_2  and  C_12 
REMARK    2  A    between atoms: O_3  and  C_14 
REMARK    3  A    between atoms: O_4  and  C_18 
REMARK    4  A    between atoms: O_5  and  C_20 
REMARK    5  A    between atoms: O_6  and  C_21 
REMARK    6  A    between atoms: O_7  and  C_22 
REMARK    7  A    between atoms: C_9  and  C_11 
ROOT
HETATM    1  O   UNK N   1     -17.018  19.968  -9.769  0.00  0.00    -0.306 OA
HETATM    2  C   UNK N   1     -18.226  21.894 -10.491  0.00  0.00     0.034 A 
HETATM    3  C   UNK N   1     -17.231  20.261  -8.492  0.00  0.00     0.119 A 
HETATM    4  C   UNK N   1     -17.469  20.728 -10.765  0.00  0.00     0.092 A 
HETATM    5  C   UNK N   1     -17.954  21.414  -8.136  0.00  0.00     0.101 A 
HETATM    6  C   UNK N   1     -18.454  22.230  -9.147  0.00  0.00     0.056 A 
HETATM    7  C   UNK N   1     -18.716  22.673 -11.573  0.00  0.00     0.081 A 
HETATM    8  C   UNK N   1     -17.194  20.361 -12.083  0.00  0.00     0.074 A 
HETATM    9  C   UNK N   1     -17.660  21.144 -13.145  0.00  0.00     0.071 A 
HETATM   10  C   UNK N   1     -18.415  22.291 -12.886  0.00  0.00     0.074 A 
ENDROOT
BRANCH   3  11
HETATM   11  C   UNK N   1     -16.742  19.349  -7.457  0.00  0.00     0.006 A 
HETATM   12  C   UNK N   1     -17.656  18.741  -6.592  0.00  0.00     0.054 A 
HETATM   13  C   UNK N   1     -17.205  17.903  -5.567  0.00  0.00     0.102 A 
HETATM   14  C   UNK N   1     -15.825  17.672  -5.408  0.00  0.00     0.132 A 
HETATM   15  C   UNK N   1     -14.907  18.285  -6.285  0.00  0.00     0.102 A 
HETATM   16  C   UNK N   1     -15.372  19.121  -7.306  0.00  0.00     0.054 A 
BRANCH  13  17
HETATM   17  O   UNK N   1     -18.092  17.325  -4.728  0.00  0.00    -0.358 OA
HETATM   18  H   UNK N   1     -18.910  16.920  -5.051  0.00  0.00     0.218 HD
ENDBRANCH  13  17
BRANCH  14  19
HETATM   19  O   UNK N   1     -15.372  16.871  -4.419  0.00  0.00    -0.356 OA
HETATM   20  H   UNK N   1     -15.452  17.109  -3.484  0.00  0.00     0.218 HD
ENDBRANCH  14  19
BRANCH  15  21
HETATM   21  O   UNK N   1     -13.579  18.088  -6.154  0.00  0.00    -0.358 OA
HETATM   22  H   UNK N   1     -13.192  17.684  -5.365  0.00  0.00     0.218 HD
ENDBRANCH  15  21
ENDBRANCH   3  11
BRANCH   5  23
HETATM   23  O   UNK N   1     -18.178  21.749  -6.846  0.00  0.00    -0.358 OA
HETATM   24  H   UNK N   1     -18.686  21.191  -6.241  0.00  0.00     0.218 HD
ENDBRANCH   5  23
BRANCH   7  25
HETATM   25  O   UNK N   1     -19.482  23.773 -11.393  0.00  0.00    -0.360 OA
HETATM   26  H   UNK N   1     -19.386  24.386 -10.655  0.00  0.00     0.217 HD
ENDBRANCH   7  25
BRANCH   9  27
HETATM   27  O   UNK N   1     -17.392  20.798 -14.420  0.00  0.00    -0.361 OA
HETATM   28  H   UNK N   1     -17.582  21.394 -15.159  0.00  0.00     0.217 HD
ENDBRANCH   9  27
TORSDOF 7
ENDMDL
MODEL 4
REMARK VINA RESULT:      -7.3      2.470      8.021
REMARK  7 active torsions:
REMARK  status: ('A' for Active; 'I' for Inactive)
REMARK    1  A    between atoms: O_2  and  C_12 
REMARK    2  A    between atoms: O_3  and  C_14 
REMARK    3  A    between atoms: O_4  and  C_18 
REMARK    4  A    between atoms: O_5  and  C_20 
REMARK    5  A    between atoms: O_6  and  C_21 
REMARK    6  A    between atoms: O_7  and  C_22 
REMARK    7  A    between atoms: C_9  and  C_11 
ROOT
HETATM    1  O   UNK N   1     -17.120  20.805 -10.557  0.00  0.00    -0.306 OA
HETATM    2  C   UNK N   1     -17.505  20.893  -8.204  0.00  0.00     0.034 A 
HETATM    3  C   UNK N   1     -18.057  21.717 -10.786  0.00  0.00     0.119 A 
HETATM    4  C   UNK N   1     -16.825  20.371  -9.333  0.00  0.00     0.092 A 
HETATM    5  C   UNK N   1     -18.793  22.267  -9.721  0.00  0.00     0.101 A 
HETATM    6  C   UNK N   1     -18.508  21.850  -8.425  0.00  0.00     0.056 A 
HETATM    7  C   UNK N   1     -17.152  20.430  -6.908  0.00  0.00     0.081 A 
HETATM    8  C   UNK N   1     -15.835  19.401  -9.172  0.00  0.00     0.074 A 
HETATM    9  C   UNK N   1     -15.508  18.932  -7.895  0.00  0.00     0.071 A 
HETATM   10  C   UNK N   1     -16.165  19.446  -6.775  0.00  0.00     0.074 A 
ENDROOT
BRANCH   3  11
HETATM   11  C   UNK N   1     -18.288  22.176 -12.157  0.00  0.00     0.006 A 
HETATM   12  C   UNK N   1     -17.714  21.474 -13.220  0.00  0.00     0.054 A 
HETATM   13  C   UNK N   1     -17.884  21.923 -14.534  0.00  0.00     0.102 A 
HETATM   14  C   UNK N   1     -18.639  23.086 -14.784  0.00  0.00     0.132 A 
HETATM   15  C   UNK N   1     -19.219  23.789 -13.708  0.00  0.00     0.102 A 
HETATM   16  C   UNK N   1     -19.040  23.328 -12.399  0.00  0.00     0.054 A 
BRANCH  13  17
HETATM   17  O   UNK N   1     -17.320  21.246 -15.557  0.00  0.00    -0.358 OA
HETATM   18  H   UNK N   1     -17.365  20.281 -15.616  0.00  0.00     0.218 HD
ENDBRANCH  13  17
BRANCH  14  19
HETATM   19  O   UNK N   1     -18.807  23.538 -16.046  0.00  0.00    -0.356 OA
HETATM   20  H   UNK N   1     -19.492  24.182 -16.277  0.00  0.00     0.218 HD
ENDBRANCH  14  19
BRANCH  15  21
HETATM   21  O   UNK N   1     -19.941  24.909 -13.915  0.00  0.00    -0.358 OA
HETATM   22  H   UNK N   1     -19.800  25.717 -13.399  0.00  0.00     0.218 HD
ENDBRANCH  15  21
ENDBRANCH   3  11
BRANCH   5  23
HETATM   23  O   UNK N   1     -19.762  23.188  -9.921  0.00  0.00    -0.358 OA
HETATM   24  H   UNK N   1     -19.699  23.876 -10.598  0.00  0.00     0.218 HD
ENDBRANCH   5  23
BRANCH   7  25
HETATM   25  O   UNK N   1     -17.725  20.912  -5.781  0.00  0.00    -0.360 OA
HETATM   26  H   UNK N   1     -18.435  20.471  -5.301  0.00  0.00     0.217 HD
ENDBRANCH   7  25
BRANCH   9  27
HETATM   27  O   UNK N   1     -14.556  17.990  -7.734  0.00  0.00    -0.361 OA
HETATM   28  H   UNK N   1     -14.764  17.114  -7.380  0.00  0.00     0.217 HD
ENDBRANCH   9  27
TORSDOF 7
ENDMDL
MODEL 5
REMARK VINA RESULT:      -7.1      4.157      9.980
REMARK  7 active torsions:
REMARK  status: ('A' for Active; 'I' for Inactive)
REMARK    1  A    between atoms: O_2  and  C_12 
REMARK    2  A    between atoms: O_3  and  C_14 
REMARK    3  A    between atoms: O_4  and  C_18 
REMARK    4  A    between atoms: O_5  and  C_20 
REMARK    5  A    between atoms: O_6  and  C_21 
REMARK    6  A    between atoms: O_7  and  C_22 
REMARK    7  A    between atoms: C_9  and  C_11 
ROOT
HETATM    1  O   UNK N   1     -17.675  19.964  -7.531  0.00  0.00    -0.306 OA
HETATM    2  C   UNK N   1     -16.247  18.463  -6.347  0.00  0.00     0.034 A 
HETATM    3  C   UNK N   1     -16.860  19.979  -8.578  0.00  0.00     0.119 A 
HETATM    4  C   UNK N   1     -17.418  19.257  -6.432  0.00  0.00     0.092 A 
HETATM    5  C   UNK N   1     -15.665  19.236  -8.564  0.00  0.00     0.101 A 
HETATM    6  C   UNK N   1     -15.364  18.474  -7.439  0.00  0.00     0.056 A 
HETATM    7  C   UNK N   1     -16.010  17.700  -5.173  0.00  0.00     0.081 A 
HETATM    8  C   UNK N   1     -18.317  19.300  -5.366  0.00  0.00     0.074 A 
HETATM    9  C   UNK N   1     -18.068  18.564  -4.202  0.00  0.00     0.071 A 
HETATM   10  C   UNK N   1     -16.921  17.771  -4.112  0.00  0.00     0.074 A 
ENDROOT
BRANCH   3  11
HETATM   11  C   UNK N   1     -17.238  20.745  -9.767  0.00  0.00     0.006 A 
HETATM   12  C   UNK N   1     -17.689  22.059  -9.620  0.00  0.00     0.054 A 
HETATM   13  C   UNK N   1     -18.099  22.792 -10.739  0.00  0.00     0.102 A 
HETATM   14  C   UNK N   1     -18.055  22.201 -12.017  0.00  0.00     0.132 A 
HETATM   15  C   UNK N   1     -17.596  20.876 -12.160  0.00  0.00     0.102 A 
HETATM   16  C   UNK N   1     -17.189  20.155 -11.033  0.00  0.00     0.054 A 
BRANCH  13  17
HETATM   17  O   UNK N   1     -18.543  24.059 -10.591  0.00  0.00    -0.358 OA
HETATM   18  H   UNK N   1     -19.422  24.330 -10.892  0.00  0.00     0.218 HD
ENDBRANCH  13  17
BRANCH  14  19
HETATM   19  O   UNK N   1     -18.455  22.892 -13.108  0.00  0.00    -0.356 OA
HETATM   20  H   UNK N   1     -18.194  23.811 -13.261  0.00  0.00     0.218 HD
ENDBRANCH  14  19
BRANCH  15  21
HETATM   21  O   UNK N   1     -17.549  20.281 -13.370  0.00  0.00    -0.358 OA
HETATM   22  H   UNK N   1     -16.991  19.510 -13.545  0.00  0.00     0.218 HD
ENDBRANCH  15  21
ENDBRANCH   3  11
BRANCH   5  23
HETATM   23  O   UNK N   1     -14.808  19.239  -9.609  0.00  0.00    -0.358 OA
HETATM   24  H   UNK N   1     -14.152  18.543  -9.751  0.00  0.00     0.218 HD
ENDBRANCH   5  23
BRANCH   7  25
HETATM   25  O   UNK N   1     -14.939  16.886  -5.036  0.00  0.00    -0.360 OA
HETATM   26  H   UNK N   1     -14.128  17.128  -4.574  0.00  0.00     0.217 HD
ENDBRANCH   7  25
BRANCH   9  27
HETATM   27  O   UNK N   1     -18.930  18.607  -3.166  0.00  0.00    -0.361 OA
HETATM   28  H   UNK N   1     -18.656  18.372  -2.267  0.00  0.00     0.217 HD
ENDBRANCH   9  27
TORSDOF 7
ENDMDL
MODEL 6
REMARK VINA RESULT:      -7.0      2.703      4.700
REMARK  7 active torsions:
REMARK  status: ('A' for Active; 'I' for Inactive)
REMARK    1  A    between atoms: O_2  and  C_12 
REMARK    2  A    between atoms: O_3  and  C_14 
REMARK    3  A    between atoms: O_4  and  C_18 
REMARK    4  A    between atoms: O_5  and  C_20 
REMARK    5  A    between atoms: O_6  and  C_21 
REMARK    6  A    between atoms: O_7  and  C_22 
REMARK    7  A    between atoms: C_9  and  C_11 
ROOT
HETATM    1  O   UNK N   1     -18.826  23.269 -10.598  0.00  0.00    -0.306 OA
HETATM    2  C   UNK N   1     -19.389  23.508 -12.904  0.00  0.00     0.034 A 
HETATM    3  C   UNK N   1     -18.288  22.074 -10.809  0.00  0.00     0.119 A 
HETATM    4  C   UNK N   1     -19.375  23.992 -11.572  0.00  0.00     0.092 A 
HETATM    5  C   UNK N   1     -18.283  21.512 -12.099  0.00  0.00     0.101 A 
HETATM    6  C   UNK N   1     -18.837  22.240 -13.148  0.00  0.00     0.056 A 
HETATM    7  C   UNK N   1     -19.959  24.311 -13.927  0.00  0.00     0.081 A 
HETATM    8  C   UNK N   1     -19.931  25.236 -11.269  0.00  0.00     0.074 A 
HETATM    9  C   UNK N   1     -20.512  26.013 -12.277  0.00  0.00     0.071 A 
HETATM   10  C   UNK N   1     -20.523  25.549 -13.596  0.00  0.00     0.074 A 
ENDROOT
BRANCH   3  11
HETATM   11  C   UNK N   1     -17.663  21.363  -9.694  0.00  0.00     0.006 A 
HETATM   12  C   UNK N   1     -16.602  20.489  -9.947  0.00  0.00     0.054 A 
HETATM   13  C   UNK N   1     -16.021  19.764  -8.900  0.00  0.00     0.102 A 
HETATM   14  C   UNK N   1     -16.508  19.919  -7.588  0.00  0.00     0.132 A 
HETATM   15  C   UNK N   1     -17.577  20.804  -7.337  0.00  0.00     0.102 A 
HETATM   16  C   UNK N   1     -18.148  21.522  -8.393  0.00  0.00     0.054 A 
BRANCH  13  17
HETATM   17  O   UNK N   1     -15.002  18.915  -9.152  0.00  0.00    -0.358 OA
HETATM   18  H   UNK N   1     -14.482  18.517  -8.439  0.00  0.00     0.218 HD
ENDBRANCH  13  17
BRANCH  14  19
HETATM   19  O   UNK N   1     -15.964  19.221  -6.567  0.00  0.00    -0.356 OA
HETATM   20  H   UNK N   1     -15.177  18.670  -6.679  0.00  0.00     0.218 HD
ENDBRANCH  14  19
BRANCH  15  21
HETATM   21  O   UNK N   1     -18.069  20.968  -6.092  0.00  0.00    -0.358 OA
HETATM   22  H   UNK N   1     -18.435  21.811  -5.788  0.00  0.00     0.218 HD
ENDBRANCH  15  21
ENDBRANCH   3  11
BRANCH   5  23
HETATM   23  O   UNK N   1     -17.756  20.293 -12.347  0.00  0.00    -0.358 OA
HETATM   24  H   UNK N   1     -17.983  19.773 -13.130  0.00  0.00     0.218 HD
ENDBRANCH   5  23
BRANCH   7  25
HETATM   25  O   UNK N   1     -19.970  23.936 -15.227  0.00  0.00    -0.360 OA
HETATM   26  H   UNK N   1     -19.306  24.201 -15.874  0.00  0.00     0.217 HD
ENDBRANCH   7  25
BRANCH   9  27
HETATM   27  O   UNK N   1     -21.056  27.212 -11.990  0.00  0.00    -0.361 OA
HETATM   28  H   UNK N   1     -21.532  27.369 -11.162  0.00  0.00     0.217 HD
ENDBRANCH   9  27
TORSDOF 7
ENDMDL
MODEL 7
REMARK VINA RESULT:      -7.0      3.869      9.834
REMARK  7 active torsions:
REMARK  status: ('A' for Active; 'I' for Inactive)
REMARK    1  A    between atoms: O_2  and  C_12 
REMARK    2  A    between atoms: O_3  and  C_14 
REMARK    3  A    between atoms: O_4  and  C_18 
REMARK    4  A    between atoms: O_5  and  C_20 
REMARK    5  A    between atoms: O_6  and  C_21 
REMARK    6  A    between atoms: O_7  and  C_22 
REMARK    7  A    between atoms: C_9  and  C_11 
ROOT
HETATM    1  O   UNK N   1     -17.825  20.152  -7.876  0.00  0.00    -0.306 OA
HETATM    2  C   UNK N   1     -16.282  18.722  -6.750  0.00  0.00     0.034 A 
HETATM    3  C   UNK N   1     -17.053  20.205  -8.954  0.00  0.00     0.119 A 
HETATM    4  C   UNK N   1     -17.492  19.459  -6.789  0.00  0.00     0.092 A 
HETATM    5  C   UNK N   1     -15.824  19.520  -8.987  0.00  0.00     0.101 A 
HETATM    6  C   UNK N   1     -15.444  18.774  -7.876  0.00  0.00     0.056 A 
HETATM    7  C   UNK N   1     -15.964  17.971  -5.587  0.00  0.00     0.081 A 
HETATM    8  C   UNK N   1     -18.351  19.460  -5.689  0.00  0.00     0.074 A 
HETATM    9  C   UNK N   1     -18.022  18.738  -4.536  0.00  0.00     0.071 A 
HETATM   10  C   UNK N   1     -16.836  18.000  -4.491  0.00  0.00     0.074 A 
ENDROOT
BRANCH   3  11
HETATM   11  C   UNK N   1     -17.512  20.951 -10.127  0.00  0.00     0.006 A 
HETATM   12  C   UNK N   1     -17.346  20.397 -11.399  0.00  0.00     0.054 A 
HETATM   13  C   UNK N   1     -17.735  21.114 -12.536  0.00  0.00     0.102 A 
HETATM   14  C   UNK N   1     -18.298  22.398 -12.395  0.00  0.00     0.132 A 
HETATM   15  C   UNK N   1     -18.466  22.951 -11.109  0.00  0.00     0.102 A 
HETATM   16  C   UNK N   1     -18.072  22.222  -9.981  0.00  0.00     0.054 A 
BRANCH  13  17
HETATM   17  O   UNK N   1     -17.564  20.578 -13.763  0.00  0.00    -0.358 OA
HETATM   18  H   UNK N   1     -17.379  19.636 -13.887  0.00  0.00     0.218 HD
ENDBRANCH  13  17
BRANCH  14  19
HETATM   19  O   UNK N   1     -18.672  23.107 -13.482  0.00  0.00    -0.356 OA
HETATM   20  H   UNK N   1     -19.181  22.715 -14.205  0.00  0.00     0.218 HD
ENDBRANCH  14  19
BRANCH  15  21
HETATM   21  O   UNK N   1     -18.995  24.180 -10.942  0.00  0.00    -0.358 OA
HETATM   22  H   UNK N   1     -18.445  24.966 -10.808  0.00  0.00     0.218 HD
ENDBRANCH  15  21
ENDBRANCH   3  11
BRANCH   5  23
HETATM   23  O   UNK N   1     -15.009  19.564 -10.064  0.00  0.00    -0.358 OA
HETATM   24  H   UNK N   1     -15.293  19.292 -10.948  0.00  0.00     0.218 HD
ENDBRANCH   5  23
BRANCH   7  25
HETATM   25  O   UNK N   1     -14.851  17.209  -5.492  0.00  0.00    -0.360 OA
HETATM   26  H   UNK N   1     -14.475  16.704  -6.222  0.00  0.00     0.217 HD
ENDBRANCH   7  25
BRANCH   9  27
HETATM   27  O   UNK N   1     -18.844  18.740  -3.468  0.00  0.00    -0.361 OA
HETATM   28  H   UNK N   1     -19.280  17.932  -3.160  0.00  0.00     0.217 HD
ENDBRANCH   9  27
TORSDOF 7
ENDMDL
MODEL 8
REMARK VINA RESULT:      -7.0      1.346      3.503
REMARK  7 active torsions:
REMARK  status: ('A' for Active; 'I' for Inactive)
REMARK    1  A    between atoms: O_2  and  C_12 
REMARK    2  A    between atoms: O_3  and  C_14 
REMARK    3  A    between atoms: O_4  and  C_18 
REMARK    4  A    between atoms: O_5  and  C_20 
REMARK    5  A    between atoms: O_6  and  C_21 
REMARK    6  A    between atoms: O_7  and  C_22 
REMARK    7  A    between atoms: C_9  and  C_11 
ROOT
HETATM    1  O   UNK N   1     -20.204  24.100 -13.549  0.00  0.00    -0.306 OA
HETATM    2  C   UNK N   1     -20.165  25.250 -15.640  0.00  0.00     0.034 A 
HETATM    3  C   UNK N   1     -19.028  23.535 -13.791  0.00  0.00     0.119 A 
HETATM    4  C   UNK N   1     -20.794  24.925 -14.412  0.00  0.00     0.092 A 
HETATM    5  C   UNK N   1     -18.348  23.787 -14.997  0.00  0.00     0.101 A 
HETATM    6  C   UNK N   1     -18.925  24.653 -15.921  0.00  0.00     0.056 A 
HETATM    7  C   UNK N   1     -20.806  26.151 -16.530  0.00  0.00     0.081 A 
HETATM    8  C   UNK N   1     -22.037  25.472 -14.092  0.00  0.00     0.074 A 
HETATM    9  C   UNK N   1     -22.676  26.342 -14.984  0.00  0.00     0.071 A 
HETATM   10  C   UNK N   1     -22.059  26.676 -16.193  0.00  0.00     0.074 A 
ENDROOT
BRANCH   3  11
HETATM   11  C   UNK N   1     -18.423  22.677 -12.770  0.00  0.00     0.006 A 
HETATM   12  C   UNK N   1     -18.151  21.340 -13.073  0.00  0.00     0.054 A 
HETATM   13  C   UNK N   1     -17.617  20.491 -12.098  0.00  0.00     0.102 A 
HETATM   14  C   UNK N   1     -17.353  20.988 -10.806  0.00  0.00     0.132 A 
HETATM   15  C   UNK N   1     -17.628  22.338 -10.507  0.00  0.00     0.102 A 
HETATM   16  C   UNK N   1     -18.161  23.175 -11.492  0.00  0.00     0.054 A 
BRANCH  13  17
HETATM   17  O   UNK N   1     -17.364  19.198 -12.393  0.00  0.00    -0.358 OA
HETATM   18  H   UNK N   1     -18.025  18.505 -12.255  0.00  0.00     0.218 HD
ENDBRANCH  13  17
BRANCH  14  19
HETATM   19  O   UNK N   1     -16.845  20.181  -9.850  0.00  0.00    -0.356 OA
HETATM   20  H   UNK N   1     -16.997  19.225  -9.846  0.00  0.00     0.218 HD
ENDBRANCH  14  19
BRANCH  15  21
HETATM   21  O   UNK N   1     -17.392  22.842  -9.277  0.00  0.00    -0.358 OA
HETATM   22  H   UNK N   1     -16.538  22.744  -8.834  0.00  0.00     0.218 HD
ENDBRANCH  15  21
ENDBRANCH   3  11
BRANCH   5  23
HETATM   23  O   UNK N   1     -17.156  23.218 -15.279  0.00  0.00    -0.358 OA
HETATM   24  H   UNK N   1     -16.901  22.345 -14.950  0.00  0.00     0.218 HD
ENDBRANCH   5  23
BRANCH   7  25
HETATM   25  O   UNK N   1     -20.248  26.543 -17.699  0.00  0.00    -0.360 OA
HETATM   26  H   UNK N   1     -19.572  26.044 -18.172  0.00  0.00     0.217 HD
ENDBRANCH   7  25
BRANCH   9  27
HETATM   27  O   UNK N   1     -23.880  26.869 -14.683  0.00  0.00    -0.361 OA
HETATM   28  H   UNK N   1     -24.531  27.071 -15.370  0.00  0.00     0.217 HD
ENDBRANCH   9  27
TORSDOF 7
ENDMDL
MODEL 9
REMARK VINA RESULT:      -6.9      6.226      9.863
REMARK  7 active torsions:
REMARK  status: ('A' for Active; 'I' for Inactive)
REMARK    1  A    between atoms: O_2  and  C_12 
REMARK    2  A    between atoms: O_3  and  C_14 
REMARK    3  A    between atoms: O_4  and  C_18 
REMARK    4  A    between atoms: O_5  and  C_20 
REMARK    5  A    between atoms: O_6  and  C_21 
REMARK    6  A    between atoms: O_7  and  C_22 
REMARK    7  A    between atoms: C_9  and  C_11 
ROOT
HETATM    1  O   UNK N   1     -16.404  18.839  -6.586  0.00  0.00    -0.306 OA
HETATM    2  C   UNK N   1     -17.518  20.593  -7.759  0.00  0.00     0.034 A 
HETATM    3  C   UNK N   1     -17.117  19.063  -5.489  0.00  0.00     0.119 A 
HETATM    4  C   UNK N   1     -16.556  19.555  -7.699  0.00  0.00     0.092 A 
HETATM    5  C   UNK N   1     -18.077  20.091  -5.459  0.00  0.00     0.101 A 
HETATM    6  C   UNK N   1     -18.275  20.856  -6.605  0.00  0.00     0.056 A 
HETATM    7  C   UNK N   1     -17.675  21.324  -8.966  0.00  0.00     0.081 A 
HETATM    8  C   UNK N   1     -15.761  19.267  -8.809  0.00  0.00     0.074 A 
HETATM    9  C   UNK N   1     -15.903  20.006  -9.989  0.00  0.00     0.071 A 
HETATM   10  C   UNK N   1     -16.856  21.026 -10.062  0.00  0.00     0.074 A 
ENDROOT
BRANCH   3  11
HETATM   11  C   UNK N   1     -16.924  18.201  -4.322  0.00  0.00     0.006 A 
HETATM   12  C   UNK N   1     -17.637  17.003  -4.230  0.00  0.00     0.054 A 
HETATM   13  C   UNK N   1     -17.502  16.187  -3.101  0.00  0.00     0.102 A 
HETATM   14  C   UNK N   1     -16.643  16.578  -2.055  0.00  0.00     0.132 A 
HETATM   15  C   UNK N   1     -15.924  17.786  -2.154  0.00  0.00     0.102 A 
HETATM   16  C   UNK N   1     -16.068  18.591  -3.289  0.00  0.00     0.054 A 
BRANCH  13  17
HETATM   17  O   UNK N   1     -18.200  15.035  -3.013  0.00  0.00    -0.358 OA
HETATM   18  H   UNK N   1     -18.637  14.765  -2.193  0.00  0.00     0.218 HD
ENDBRANCH  13  17
BRANCH  14  19
HETATM   19  O   UNK N   1     -16.506  15.807  -0.954  0.00  0.00    -0.356 OA
HETATM   20  H   UNK N   1     -16.525  14.840  -0.995  0.00  0.00     0.218 HD
ENDBRANCH  14  19
BRANCH  15  21
HETATM   21  O   UNK N   1     -15.099  18.190  -1.166  0.00  0.00    -0.358 OA
HETATM   22  H   UNK N   1     -15.037  19.116  -0.890  0.00  0.00     0.218 HD
ENDBRANCH  15  21
ENDBRANCH   3  11
BRANCH   5  23
HETATM   23  O   UNK N   1     -18.810  20.354  -4.355  0.00  0.00    -0.358 OA
HETATM   24  H   UNK N   1     -19.438  21.088  -4.305  0.00  0.00     0.218 HD
ENDBRANCH   5  23
BRANCH   7  25
HETATM   25  O   UNK N   1     -18.601  22.299  -9.114  0.00  0.00    -0.360 OA
HETATM   26  H   UNK N   1     -18.448  23.229  -8.910  0.00  0.00     0.217 HD
ENDBRANCH   7  25
BRANCH   9  27
HETATM   27  O   UNK N   1     -15.134  19.737 -11.063  0.00  0.00    -0.361 OA
HETATM   28  H   UNK N   1     -14.241  19.374 -10.971  0.00  0.00     0.217 HD
ENDBRANCH   9  27
TORSDOF 7
ENDMDL
