MODEL 1
REMARK VINA RESULT:      -7.3      0.000      0.000
REMARK  7 active torsions:
REMARK  status: ('A' for Active; 'I' for Inactive)
REMARK    1  A    between atoms: O_1  and  C_22 
REMARK    2  A    between atoms: C_6  and  C_13 
REMARK    3  A    between atoms: C_13  and  C_20 
REMARK    4  A    between atoms: C_20  and  C_24 
REMARK    5  A    between atoms: C_24  and  C_25 
REMARK    6  A    between atoms: C_25  and  C_26 
REMARK    7  A    between atoms: C_25  and  C_27 
ROOT
HETATM    1  C   UNK N   1     -23.598  27.148 -16.192  0.00  0.00    -0.036 C 
HETATM    2  C   UNK N   1     -22.728  26.492 -15.097  0.00  0.00    -0.001 C 
HETATM    3  C   UNK N   1     -21.606  25.587 -15.672  0.00  0.00    -0.001 C 
HETATM    4  C   UNK N   1     -20.702  26.414 -16.619  0.00  0.00     0.003 C 
HETATM    5  C   UNK N   1     -24.615  27.906 -15.290  0.00  0.00    -0.002 C 
HETATM    6  C   UNK N   1     -22.637  28.054 -17.019  0.00  0.00     0.010 C 
HETATM    7  C   UNK N   1     -19.593  25.498 -17.276  0.00  0.00    -0.017 C 
HETATM    8  C   UNK N   1     -23.744  25.871 -14.153  0.00  0.00     0.006 C 
HETATM    9  C   UNK N   1     -21.521  27.225 -17.667  0.00  0.00     0.007 C 
HETATM   10  C   UNK N   1     -24.912  26.880 -14.155  0.00  0.00     0.006 C 
HETATM   11  C   UNK N   1     -20.747  25.012 -14.529  0.00  0.00     0.033 C 
HETATM   12  C   UNK N   1     -24.350  26.123 -17.105  0.00  0.00     0.016 C 
HETATM   13  C   UNK N   1     -18.944  24.575 -16.235  0.00  0.00    -0.072 C 
HETATM   14  C   UNK N   1     -18.479  26.436 -17.841  0.00  0.00     0.016 C 
HETATM   15  C   UNK N   1     -19.456  24.393 -14.996  0.00  0.00    -0.023 C 
HETATM   16  C   UNK N   1     -20.167  24.600 -18.410  0.00  0.00     0.020 C 
HETATM   17  C   UNK N   1     -17.664  23.856 -16.627  0.00  0.00     0.066 C 
HETATM   18  C   UNK N   1     -17.218  25.686 -18.299  0.00  0.00     0.033 C 
HETATM   19  C   UNK N   1     -16.628  24.871 -17.136  0.00  0.00     0.122 C 
ENDROOT
BRANCH   5  20
HETATM   20  C   UNK N   1     -25.911  28.533 -15.913  0.00  0.00    -0.014 C 
HETATM   21  C   UNK N   1     -25.750  30.040 -16.187  0.00  0.00     0.010 C 
BRANCH  20  22
HETATM   22  C   UNK N   1     -27.131  28.271 -14.982  0.00  0.00     0.005 C 
BRANCH  22  23
HETATM   23  C   UNK N   1     -28.274  27.432 -15.602  0.00  0.00     0.005 C 
BRANCH  23  24
HETATM   24  C   UNK N   1     -27.861  26.466 -16.758  0.00  0.00    -0.012 C 
BRANCH  24  25
HETATM   25  C   UNK N   1     -28.531  26.850 -18.125  0.00  0.00    -0.019 C 
HETATM   26  C   UNK N   1     -27.768  26.272 -19.333  0.00  0.00     0.010 C 
HETATM   27  C   UNK N   1     -28.733  28.362 -18.314  0.00  0.00     0.010 C 
ENDBRANCH  24  25
BRANCH  24  28
HETATM   28  C   UNK N   1     -28.129  24.990 -16.342  0.00  0.00     0.000 C 
HETATM   29  C   UNK N   1     -27.344  24.522 -15.115  0.00  0.00     0.005 C 
ENDBRANCH  24  28
ENDBRANCH  23  24
ENDBRANCH  22  23
ENDBRANCH  20  22
ENDBRANCH   5  20
BRANCH  19  30
HETATM   30  O   UNK N   1     -15.478  24.205 -17.587  0.00  0.00    -0.395 OA
HETATM   31  H   UNK N   1     -15.533  23.274 -17.245  0.00  0.00     0.210 HD
ENDBRANCH  19  30
TORSDOF 7
ENDMDL
MODEL 2
REMARK VINA RESULT:      -6.7      7.687     12.199
REMARK  7 active torsions:
REMARK  status: ('A' for Active; 'I' for Inactive)
REMARK    1  A    between atoms: O_1  and  C_22 
REMARK    2  A    between atoms: C_6  and  C_13 
REMARK    3  A    between atoms: C_13  and  C_20 
REMARK    4  A    between atoms: C_20  and  C_24 
REMARK    5  A    between atoms: C_24  and  C_25 
REMARK    6  A    between atoms: C_25  and  C_26 
REMARK    7  A    between atoms: C_25  and  C_27 
ROOT
HETATM    1  C   UNK N   1     -24.567  22.129  -9.159  0.00  0.00    -0.036 C 
HETATM    2  C   UNK N   1     -25.290  21.373 -10.297  0.00  0.00    -0.001 C 
HETATM    3  C   UNK N   1     -26.247  20.266  -9.780  0.00  0.00    -0.001 C 
HETATM    4  C   UNK N   1     -27.298  20.889  -8.827  0.00  0.00     0.003 C 
HETATM    5  C   UNK N   1     -23.682  23.084 -10.011  0.00  0.00    -0.002 C 
HETATM    6  C   UNK N   1     -25.685  22.822  -8.325  0.00  0.00     0.010 C 
HETATM    7  C   UNK N   1     -28.242  19.771  -8.229  0.00  0.00    -0.017 C 
HETATM    8  C   UNK N   1     -24.165  20.974 -11.237  0.00  0.00     0.006 C 
HETATM    9  C   UNK N   1     -26.652  21.789  -7.733  0.00  0.00     0.007 C 
HETATM   10  C   UNK N   1     -23.191  22.168 -11.173  0.00  0.00     0.006 C 
HETATM   11  C   UNK N   1     -26.973  19.595 -10.962  0.00  0.00     0.033 C 
HETATM   12  C   UNK N   1     -23.665  21.215  -8.265  0.00  0.00     0.016 C 
HETATM   13  C   UNK N   1     -28.703  18.789  -9.316  0.00  0.00    -0.072 C 
HETATM   14  C   UNK N   1     -29.513  20.480  -7.658  0.00  0.00     0.016 C 
HETATM   15  C   UNK N   1     -28.145  18.744 -10.547  0.00  0.00    -0.023 C 
HETATM   16  C   UNK N   1     -27.541  18.943  -7.112  0.00  0.00     0.020 C 
HETATM   17  C   UNK N   1     -29.844  17.845  -8.979  0.00  0.00     0.066 C 
HETATM   18  C   UNK N   1     -30.631  19.505  -7.256  0.00  0.00     0.033 C 
HETATM   19  C   UNK N   1     -31.050  18.645  -8.460  0.00  0.00     0.122 C 
ENDROOT
BRANCH   5  20
HETATM   20  C   UNK N   1     -22.526  23.903  -9.336  0.00  0.00    -0.014 C 
HETATM   21  C   UNK N   1     -22.938  25.359  -9.052  0.00  0.00     0.010 C 
BRANCH  20  22
HETATM   22  C   UNK N   1     -21.249  23.857 -10.227  0.00  0.00     0.005 C 
BRANCH  22  23
HETATM   23  C   UNK N   1     -20.124  22.918  -9.730  0.00  0.00     0.005 C 
BRANCH  23  24
HETATM   24  C   UNK N   1     -18.822  22.899 -10.592  0.00  0.00    -0.012 C 
BRANCH  24  25
HETATM   25  C   UNK N   1     -19.020  22.151 -11.958  0.00  0.00    -0.019 C 
HETATM   26  C   UNK N   1     -18.091  20.930 -12.097  0.00  0.00     0.010 C 
HETATM   27  C   UNK N   1     -18.873  23.059 -13.188  0.00  0.00     0.010 C 
ENDBRANCH  24  25
BRANCH  24  28
HETATM   28  C   UNK N   1     -17.636  22.335  -9.756  0.00  0.00     0.000 C 
HETATM   29  C   UNK N   1     -18.045  21.658  -8.446  0.00  0.00     0.005 C 
ENDBRANCH  24  28
ENDBRANCH  23  24
ENDBRANCH  22  23
ENDBRANCH  20  22
ENDBRANCH   5  20
BRANCH  19  30
HETATM   30  O   UNK N   1     -32.074  17.773  -8.060  0.00  0.00    -0.395 OA
HETATM   31  H   UNK N   1     -31.854  16.881  -8.434  0.00  0.00     0.210 HD
ENDBRANCH  19  30
TORSDOF 7
ENDMDL
MODEL 3
REMARK VINA RESULT:      -6.5      0.992      1.697
REMARK  7 active torsions:
REMARK  status: ('A' for Active; 'I' for Inactive)
REMARK    1  A    between atoms: O_1  and  C_22 
REMARK    2  A    between atoms: C_6  and  C_13 
REMARK    3  A    between atoms: C_13  and  C_20 
REMARK    4  A    between atoms: C_20  and  C_24 
REMARK    5  A    between atoms: C_24  and  C_25 
REMARK    6  A    between atoms: C_25  and  C_26 
REMARK    7  A    between atoms: C_25  and  C_27 
ROOT
HETATM    1  C   UNK N   1     -23.675  27.221 -16.200  0.00  0.00    -0.036 C 
HETATM    2  C   UNK N   1     -22.847  26.483 -15.123  0.00  0.00    -0.001 C 
HETATM    3  C   UNK N   1     -21.727  25.592 -15.721  0.00  0.00    -0.001 C 
HETATM    4  C   UNK N   1     -20.782  26.456 -16.591  0.00  0.00     0.003 C 
HETATM    5  C   UNK N   1     -24.702  27.943 -15.282  0.00  0.00    -0.002 C 
HETATM    6  C   UNK N   1     -22.674  28.155 -16.945  0.00  0.00     0.010 C 
HETATM    7  C   UNK N   1     -19.671  25.559 -17.272  0.00  0.00    -0.017 C 
HETATM    8  C   UNK N   1     -23.901  25.827 -14.246  0.00  0.00     0.006 C 
HETATM    9  C   UNK N   1     -21.555  27.344 -17.611  0.00  0.00     0.007 C 
HETATM   10  C   UNK N   1     -25.050  26.857 -14.219  0.00  0.00     0.006 C 
HETATM   11  C   UNK N   1     -20.910  24.933 -14.592  0.00  0.00     0.033 C 
HETATM   12  C   UNK N   1     -24.418  26.267 -17.193  0.00  0.00     0.016 C 
HETATM   13  C   UNK N   1     -19.068  24.563 -16.271  0.00  0.00    -0.072 C 
HETATM   14  C   UNK N   1     -18.524  26.507 -17.750  0.00  0.00     0.016 C 
HETATM   15  C   UNK N   1     -19.619  24.317 -15.060  0.00  0.00    -0.023 C 
HETATM   16  C   UNK N   1     -20.229  24.741 -18.474  0.00  0.00     0.020 C 
HETATM   17  C   UNK N   1     -17.792  23.843 -16.671  0.00  0.00     0.066 C 
HETATM   18  C   UNK N   1     -17.265  25.760 -18.218  0.00  0.00     0.033 C 
HETATM   19  C   UNK N   1     -16.723  24.866 -17.090  0.00  0.00     0.122 C 
ENDROOT
BRANCH   5  20
HETATM   20  C   UNK N   1     -25.968  28.632 -15.900  0.00  0.00    -0.014 C 
HETATM   21  C   UNK N   1     -25.800  30.159 -16.013  0.00  0.00     0.010 C 
BRANCH  20  22
HETATM   22  C   UNK N   1     -27.232  28.280 -15.061  0.00  0.00     0.005 C 
BRANCH  22  23
HETATM   23  C   UNK N   1     -28.397  27.635 -15.849  0.00  0.00     0.005 C 
BRANCH  23  24
HETATM   24  C   UNK N   1     -29.469  28.622 -16.411  0.00  0.00    -0.012 C 
BRANCH  24  25
HETATM   25  C   UNK N   1     -29.253  28.936 -17.934  0.00  0.00    -0.019 C 
HETATM   26  C   UNK N   1     -28.294  27.936 -18.608  0.00  0.00     0.010 C 
HETATM   27  C   UNK N   1     -28.783  30.373 -18.210  0.00  0.00     0.010 C 
ENDBRANCH  24  25
BRANCH  24  28
HETATM   28  C   UNK N   1     -29.530  29.903 -15.528  0.00  0.00     0.000 C 
HETATM   29  C   UNK N   1     -30.558  29.848 -14.396  0.00  0.00     0.005 C 
ENDBRANCH  24  28
ENDBRANCH  23  24
ENDBRANCH  22  23
ENDBRANCH  20  22
ENDBRANCH   5  20
BRANCH  19  30
HETATM   30  O   UNK N   1     -15.573  24.205 -17.549  0.00  0.00    -0.395 OA
HETATM   31  H   UNK N   1     -15.882  23.419 -18.070  0.00  0.00     0.210 HD
ENDBRANCH  19  30
TORSDOF 7
ENDMDL
MODEL 4
REMARK VINA RESULT:      -6.5      7.254     12.011
REMARK  7 active torsions:
REMARK  status: ('A' for Active; 'I' for Inactive)
REMARK    1  A    between atoms: O_1  and  C_22 
REMARK    2  A    between atoms: C_6  and  C_13 
REMARK    3  A    between atoms: C_13  and  C_20 
REMARK    4  A    between atoms: C_20  and  C_24 
REMARK    5  A    between atoms: C_24  and  C_25 
REMARK    6  A    between atoms: C_25  and  C_26 
REMARK    7  A    between atoms: C_25  and  C_27 
ROOT
HETATM    1  C   UNK N   1     -24.254  21.915  -9.577  0.00  0.00    -0.036 C 
HETATM    2  C   UNK N   1     -25.527  22.728  -9.251  0.00  0.00    -0.001 C 
HETATM    3  C   UNK N   1     -26.837  21.978  -9.607  0.00  0.00    -0.001 C 
HETATM    4  C   UNK N   1     -26.885  20.625  -8.854  0.00  0.00     0.003 C 
HETATM    5  C   UNK N   1     -23.173  22.955  -9.163  0.00  0.00    -0.002 C 
HETATM    6  C   UNK N   1     -24.323  20.636  -8.690  0.00  0.00     0.010 C 
HETATM    7  C   UNK N   1     -28.177  19.807  -9.255  0.00  0.00    -0.017 C 
HETATM    8  C   UNK N   1     -25.268  24.077  -9.900  0.00  0.00     0.006 C 
HETATM    9  C   UNK N   1     -25.571  19.805  -9.016  0.00  0.00     0.007 C 
HETATM   10  C   UNK N   1     -23.754  24.299  -9.697  0.00  0.00     0.006 C 
HETATM   11  C   UNK N   1     -28.062  22.823  -9.205  0.00  0.00     0.033 C 
HETATM   12  C   UNK N   1     -24.102  21.556 -11.093  0.00  0.00     0.016 C 
HETATM   13  C   UNK N   1     -29.424  20.703  -9.269  0.00  0.00    -0.072 C 
HETATM   14  C   UNK N   1     -28.395  18.704  -8.170  0.00  0.00     0.016 C 
HETATM   15  C   UNK N   1     -29.356  22.053  -9.213  0.00  0.00    -0.023 C 
HETATM   16  C   UNK N   1     -28.049  19.157 -10.664  0.00  0.00     0.020 C 
HETATM   17  C   UNK N   1     -30.782  20.026  -9.333  0.00  0.00     0.066 C 
HETATM   18  C   UNK N   1     -29.745  17.979  -8.293  0.00  0.00     0.033 C 
HETATM   19  C   UNK N   1     -30.904  18.987  -8.206  0.00  0.00     0.122 C 
ENDROOT
BRANCH   5  20
HETATM   20  C   UNK N   1     -21.670  22.731  -9.551  0.00  0.00    -0.014 C 
HETATM   21  C   UNK N   1     -20.779  22.512  -8.315  0.00  0.00     0.010 C 
BRANCH  20  22
HETATM   22  C   UNK N   1     -21.153  23.932 -10.397  0.00  0.00     0.005 C 
BRANCH  22  23
HETATM   23  C   UNK N   1     -19.660  23.870 -10.799  0.00  0.00     0.005 C 
BRANCH  23  24
HETATM   24  C   UNK N   1     -19.276  22.758 -11.826  0.00  0.00    -0.012 C 
BRANCH  24  25
HETATM   25  C   UNK N   1     -18.420  21.614 -11.176  0.00  0.00    -0.019 C 
HETATM   26  C   UNK N   1     -17.308  22.163 -10.261  0.00  0.00     0.010 C 
HETATM   27  C   UNK N   1     -17.817  20.635 -12.197  0.00  0.00     0.010 C 
ENDBRANCH  24  25
BRANCH  24  28
HETATM   28  C   UNK N   1     -18.596  23.394 -13.073  0.00  0.00     0.000 C 
HETATM   29  C   UNK N   1     -19.566  24.018 -14.079  0.00  0.00     0.005 C 
ENDBRANCH  24  28
ENDBRANCH  23  24
ENDBRANCH  22  23
ENDBRANCH  20  22
ENDBRANCH   5  20
BRANCH  19  30
HETATM   30  O   UNK N   1     -32.118  18.293  -8.316  0.00  0.00    -0.395 OA
HETATM   31  H   UNK N   1     -32.841  18.948  -8.137  0.00  0.00     0.210 HD
ENDBRANCH  19  30
TORSDOF 7
ENDMDL
MODEL 5
REMARK VINA RESULT:      -6.4      3.761      8.849
REMARK  7 active torsions:
REMARK  status: ('A' for Active; 'I' for Inactive)
REMARK    1  A    between atoms: O_1  and  C_22 
REMARK    2  A    between atoms: C_6  and  C_13 
REMARK    3  A    between atoms: C_13  and  C_20 
REMARK    4  A    between atoms: C_20  and  C_24 
REMARK    5  A    between atoms: C_24  and  C_25 
REMARK    6  A    between atoms: C_25  and  C_26 
REMARK    7  A    between atoms: C_25  and  C_27 
ROOT
HETATM    1  C   UNK N   1     -22.989  25.686 -13.716  0.00  0.00    -0.036 C 
HETATM    2  C   UNK N   1     -23.224  27.195 -13.951  0.00  0.00    -0.001 C 
HETATM    3  C   UNK N   1     -23.985  27.496 -15.269  0.00  0.00    -0.001 C 
HETATM    4  C   UNK N   1     -25.348  26.760 -15.263  0.00  0.00     0.003 C 
HETATM    5  C   UNK N   1     -22.180  25.756 -12.389  0.00  0.00    -0.002 C 
HETATM    6  C   UNK N   1     -24.405  25.045 -13.601  0.00  0.00     0.010 C 
HETATM    7  C   UNK N   1     -26.115  26.990 -16.626  0.00  0.00    -0.017 C 
HETATM    8  C   UNK N   1     -21.846  27.807 -13.758  0.00  0.00     0.006 C 
HETATM    9  C   UNK N   1     -25.211  25.254 -14.889  0.00  0.00     0.007 C 
HETATM   10  C   UNK N   1     -21.226  26.967 -12.622  0.00  0.00     0.006 C 
HETATM   11  C   UNK N   1     -24.231  29.011 -15.409  0.00  0.00     0.033 C 
HETATM   12  C   UNK N   1     -22.135  24.995 -14.831  0.00  0.00     0.016 C 
HETATM   13  C   UNK N   1     -26.059  28.464 -17.055  0.00  0.00    -0.072 C 
HETATM   14  C   UNK N   1     -27.615  26.618 -16.395  0.00  0.00     0.016 C 
HETATM   15  C   UNK N   1     -25.231  29.364 -16.478  0.00  0.00    -0.023 C 
HETATM   16  C   UNK N   1     -25.523  26.138 -17.787  0.00  0.00     0.020 C 
HETATM   17  C   UNK N   1     -26.991  28.912 -18.168  0.00  0.00     0.066 C 
HETATM   18  C   UNK N   1     -28.534  27.015 -17.561  0.00  0.00     0.033 C 
HETATM   19  C   UNK N   1     -28.440  28.528 -17.825  0.00  0.00     0.122 C 
ENDROOT
BRANCH   5  20
HETATM   20  C   UNK N   1     -21.445  24.483 -11.843  0.00  0.00    -0.014 C 
HETATM   21  C   UNK N   1     -22.291  23.727 -10.802  0.00  0.00     0.010 C 
BRANCH  20  22
HETATM   22  C   UNK N   1     -20.064  24.881 -11.243  0.00  0.00     0.005 C 
BRANCH  22  23
HETATM   23  C   UNK N   1     -19.199  23.707 -10.726  0.00  0.00     0.005 C 
BRANCH  23  24
HETATM   24  C   UNK N   1     -18.876  22.588 -11.765  0.00  0.00    -0.012 C 
BRANCH  24  25
HETATM   25  C   UNK N   1     -18.149  21.358 -11.114  0.00  0.00    -0.019 C 
HETATM   26  C   UNK N   1     -17.004  21.785 -10.174  0.00  0.00     0.010 C 
HETATM   27  C   UNK N   1     -17.628  20.334 -12.135  0.00  0.00     0.010 C 
ENDBRANCH  24  25
BRANCH  24  28
HETATM   28  C   UNK N   1     -18.096  23.188 -12.971  0.00  0.00     0.000 C 
HETATM   29  C   UNK N   1     -18.886  23.237 -14.281  0.00  0.00     0.005 C 
ENDBRANCH  24  28
ENDBRANCH  23  24
ENDBRANCH  22  23
ENDBRANCH  20  22
ENDBRANCH   5  20
BRANCH  19  30
HETATM   30  O   UNK N   1     -29.293  28.856 -18.890  0.00  0.00    -0.395 OA
HETATM   31  H   UNK N   1     -28.721  29.216 -19.616  0.00  0.00     0.210 HD
ENDBRANCH  19  30
TORSDOF 7
ENDMDL
MODEL 6
REMARK VINA RESULT:      -6.3     33.118     35.983
REMARK  7 active torsions:
REMARK  status: ('A' for Active; 'I' for Inactive)
REMARK    1  A    between atoms: O_1  and  C_22 
REMARK    2  A    between atoms: C_6  and  C_13 
REMARK    3  A    between atoms: C_13  and  C_20 
REMARK    4  A    between atoms: C_20  and  C_24 
REMARK    5  A    between atoms: C_24  and  C_25 
REMARK    6  A    between atoms: C_25  and  C_26 
REMARK    7  A    between atoms: C_25  and  C_27 
ROOT
HETATM    1  C   UNK N   1     -38.564  -2.391  -4.120  0.00  0.00    -0.036 C 
HETATM    2  C   UNK N   1     -38.894  -0.920  -3.781  0.00  0.00    -0.001 C 
HETATM    3  C   UNK N   1     -40.392  -0.694  -3.445  0.00  0.00    -0.001 C 
HETATM    4  C   UNK N   1     -40.802  -1.598  -2.257  0.00  0.00     0.003 C 
HETATM    5  C   UNK N   1     -37.050  -2.244  -4.450  0.00  0.00    -0.002 C 
HETATM    6  C   UNK N   1     -38.889  -3.211  -2.835  0.00  0.00     0.010 C 
HETATM    7  C   UNK N   1     -42.343  -1.441  -1.939  0.00  0.00    -0.017 C 
HETATM    8  C   UNK N   1     -38.288  -0.140  -4.936  0.00  0.00     0.006 C 
HETATM    9  C   UNK N   1     -40.371  -3.082  -2.459  0.00  0.00     0.007 C 
HETATM   10  C   UNK N   1     -36.996  -0.917  -5.266  0.00  0.00     0.006 C 
HETATM   11  C   UNK N   1     -40.636   0.780  -3.065  0.00  0.00     0.033 C 
HETATM   12  C   UNK N   1     -39.335  -2.944  -5.364  0.00  0.00     0.016 C 
HETATM   13  C   UNK N   1     -42.765   0.035  -1.939  0.00  0.00    -0.072 C 
HETATM   14  C   UNK N   1     -42.591  -2.007  -0.503  0.00  0.00     0.016 C 
HETATM   15  C   UNK N   1     -41.974   1.023  -2.418  0.00  0.00    -0.023 C 
HETATM   16  C   UNK N   1     -43.237  -2.187  -2.973  0.00  0.00     0.020 C 
HETATM   17  C   UNK N   1     -44.125   0.382  -1.359  0.00  0.00     0.066 C 
HETATM   18  C   UNK N   1     -43.997  -1.708   0.041  0.00  0.00     0.033 C 
HETATM   19  C   UNK N   1     -44.251  -0.191   0.062  0.00  0.00     0.122 C 
ENDROOT
BRANCH   5  20
HETATM   20  C   UNK N   1     -36.271  -3.423  -5.131  0.00  0.00    -0.014 C 
HETATM   21  C   UNK N   1     -35.149  -3.971  -4.230  0.00  0.00     0.010 C 
BRANCH  20  22
HETATM   22  C   UNK N   1     -35.698  -2.961  -6.503  0.00  0.00     0.005 C 
BRANCH  22  23
HETATM   23  C   UNK N   1     -35.469  -4.085  -7.541  0.00  0.00     0.005 C 
BRANCH  23  24
HETATM   24  C   UNK N   1     -36.351  -4.016  -8.828  0.00  0.00    -0.012 C 
BRANCH  24  25
HETATM   25  C   UNK N   1     -37.880  -4.187  -8.515  0.00  0.00    -0.019 C 
HETATM   26  C   UNK N   1     -38.388  -5.606  -8.834  0.00  0.00     0.010 C 
HETATM   27  C   UNK N   1     -38.774  -3.147  -9.207  0.00  0.00     0.010 C 
ENDBRANCH  24  25
BRANCH  24  28
HETATM   28  C   UNK N   1     -35.830  -5.029  -9.889  0.00  0.00     0.000 C 
HETATM   29  C   UNK N   1     -35.814  -4.497 -11.323  0.00  0.00     0.005 C 
ENDBRANCH  24  28
ENDBRANCH  23  24
ENDBRANCH  22  23
ENDBRANCH  20  22
ENDBRANCH   5  20
BRANCH  19  30
HETATM   30  O   UNK N   1     -45.538   0.046   0.568  0.00  0.00    -0.395 OA
HETATM   31  H   UNK N   1     -45.960  -0.841   0.708  0.00  0.00     0.210 HD
ENDBRANCH  19  30
TORSDOF 7
ENDMDL
MODEL 7
REMARK VINA RESULT:      -6.3      1.562      2.603
REMARK  7 active torsions:
REMARK  status: ('A' for Active; 'I' for Inactive)
REMARK    1  A    between atoms: O_1  and  C_22 
REMARK    2  A    between atoms: C_6  and  C_13 
REMARK    3  A    between atoms: C_13  and  C_20 
REMARK    4  A    between atoms: C_20  and  C_24 
REMARK    5  A    between atoms: C_24  and  C_25 
REMARK    6  A    between atoms: C_25  and  C_26 
REMARK    7  A    between atoms: C_25  and  C_27 
ROOT
HETATM    1  C   UNK N   1     -23.717  28.460 -16.884  0.00  0.00    -0.036 C 
HETATM    2  C   UNK N   1     -23.090  28.239 -15.490  0.00  0.00    -0.001 C 
HETATM    3  C   UNK N   1     -22.365  26.874 -15.357  0.00  0.00    -0.001 C 
HETATM    4  C   UNK N   1     -21.262  26.762 -16.439  0.00  0.00     0.003 C 
HETATM    5  C   UNK N   1     -24.384  29.846 -16.648  0.00  0.00    -0.002 C 
HETATM    6  C   UNK N   1     -22.530  28.456 -17.894  0.00  0.00     0.010 C 
HETATM    7  C   UNK N   1     -20.554  25.350 -16.373  0.00  0.00    -0.017 C 
HETATM    8  C   UNK N   1     -24.228  28.548 -14.530  0.00  0.00     0.006 C 
HETATM    9  C   UNK N   1     -21.785  27.115 -17.863  0.00  0.00     0.007 C 
HETATM   10  C   UNK N   1     -24.979  29.710 -15.213  0.00  0.00     0.006 C 
HETATM   11  C   UNK N   1     -21.719  26.746 -13.963  0.00  0.00     0.033 C 
HETATM   12  C   UNK N   1     -24.802  27.400 -17.268  0.00  0.00     0.016 C 
HETATM   13  C   UNK N   1     -20.228  24.956 -14.925  0.00  0.00    -0.072 C 
HETATM   14  C   UNK N   1     -19.204  25.460 -17.152  0.00  0.00     0.016 C 
HETATM   15  C   UNK N   1     -20.734  25.612 -13.856  0.00  0.00    -0.023 C 
HETATM   16  C   UNK N   1     -21.436  24.220 -16.982  0.00  0.00     0.020 C 
HETATM   17  C   UNK N   1     -19.285  23.786 -14.706  0.00  0.00     0.066 C 
HETATM   18  C   UNK N   1     -18.292  24.236 -16.976  0.00  0.00     0.033 C 
HETATM   19  C   UNK N   1     -17.980  24.010 -15.487  0.00  0.00     0.122 C 
ENDROOT
BRANCH   5  20
HETATM   20  C   UNK N   1     -25.405  30.421 -17.690  0.00  0.00    -0.014 C 
HETATM   21  C   UNK N   1     -24.934  31.761 -18.284  0.00  0.00     0.010 C 
BRANCH  20  22
HETATM   22  C   UNK N   1     -26.809  30.573 -17.034  0.00  0.00     0.005 C 
BRANCH  22  23
HETATM   23  C   UNK N   1     -27.972  29.878 -17.780  0.00  0.00     0.005 C 
BRANCH  23  24
HETATM   24  C   UNK N   1     -28.819  28.872 -16.937  0.00  0.00    -0.012 C 
BRANCH  24  25
HETATM   25  C   UNK N   1     -28.655  29.100 -15.393  0.00  0.00    -0.019 C 
HETATM   26  C   UNK N   1     -28.051  27.875 -14.680  0.00  0.00     0.010 C 
HETATM   27  C   UNK N   1     -29.954  29.522 -14.688  0.00  0.00     0.010 C 
ENDBRANCH  24  25
BRANCH  24  28
HETATM   28  C   UNK N   1     -28.503  27.411 -17.374  0.00  0.00     0.000 C 
HETATM   29  C   UNK N   1     -28.065  27.263 -18.832  0.00  0.00     0.005 C 
ENDBRANCH  24  28
ENDBRANCH  23  24
ENDBRANCH  22  23
ENDBRANCH  20  22
ENDBRANCH   5  20
BRANCH  19  30
HETATM   30  O   UNK N   1     -17.143  22.891 -15.363  0.00  0.00    -0.395 OA
HETATM   31  H   UNK N   1     -17.023  22.728 -14.392  0.00  0.00     0.210 HD
ENDBRANCH  19  30
TORSDOF 7
ENDMDL
MODEL 8
REMARK VINA RESULT:      -6.2      3.506      8.890
REMARK  7 active torsions:
REMARK  status: ('A' for Active; 'I' for Inactive)
REMARK    1  A    between atoms: O_1  and  C_22 
REMARK    2  A    between atoms: C_6  and  C_13 
REMARK    3  A    between atoms: C_13  and  C_20 
REMARK    4  A    between atoms: C_20  and  C_24 
REMARK    5  A    between atoms: C_24  and  C_25 
REMARK    6  A    between atoms: C_25  and  C_26 
REMARK    7  A    between atoms: C_25  and  C_27 
ROOT
HETATM    1  C   UNK N   1     -23.412  26.587 -17.317  0.00  0.00    -0.036 C 
HETATM    2  C   UNK N   1     -24.703  26.078 -17.997  0.00  0.00    -0.001 C 
HETATM    3  C   UNK N   1     -25.981  26.796 -17.491  0.00  0.00    -0.001 C 
HETATM    4  C   UNK N   1     -25.848  28.322 -17.720  0.00  0.00     0.003 C 
HETATM    5  C   UNK N   1     -22.377  25.643 -17.995  0.00  0.00    -0.002 C 
HETATM    6  C   UNK N   1     -23.290  28.092 -17.698  0.00  0.00     0.010 C 
HETATM    7  C   UNK N   1     -27.107  29.087 -17.147  0.00  0.00    -0.017 C 
HETATM    8  C   UNK N   1     -24.616  24.568 -17.849  0.00  0.00     0.006 C 
HETATM    9  C   UNK N   1     -24.498  28.889 -17.188  0.00  0.00     0.007 C 
HETATM   10  C   UNK N   1     -23.111  24.268 -18.010  0.00  0.00     0.006 C 
HETATM   11  C   UNK N   1     -27.219  26.279 -18.249  0.00  0.00     0.033 C 
HETATM   12  C   UNK N   1     -23.389  26.383 -15.766  0.00  0.00     0.016 C 
HETATM   13  C   UNK N   1     -28.414  28.380 -17.537  0.00  0.00    -0.072 C 
HETATM   14  C   UNK N   1     -27.127  30.512 -17.786  0.00  0.00     0.016 C 
HETATM   15  C   UNK N   1     -28.445  27.133 -18.060  0.00  0.00    -0.023 C 
HETATM   16  C   UNK N   1     -27.075  29.194 -15.594  0.00  0.00     0.020 C 
HETATM   17  C   UNK N   1     -29.715  29.137 -17.333  0.00  0.00     0.066 C 
HETATM   18  C   UNK N   1     -28.423  31.291 -17.510  0.00  0.00     0.033 C 
HETATM   19  C   UNK N   1     -29.640  30.506 -18.027  0.00  0.00     0.122 C 
ENDROOT
BRANCH   5  20
HETATM   20  C   UNK N   1     -20.909  25.556 -17.449  0.00  0.00    -0.014 C 
HETATM   21  C   UNK N   1     -19.873  25.995 -18.500  0.00  0.00     0.010 C 
BRANCH  20  22
HETATM   22  C   UNK N   1     -20.610  24.110 -16.952  0.00  0.00     0.005 C 
BRANCH  22  23
HETATM   23  C   UNK N   1     -19.155  23.851 -16.494  0.00  0.00     0.005 C 
BRANCH  23  24
HETATM   24  C   UNK N   1     -18.876  24.035 -14.969  0.00  0.00    -0.012 C 
BRANCH  24  25
HETATM   25  C   UNK N   1     -17.934  22.919 -14.394  0.00  0.00    -0.019 C 
HETATM   26  C   UNK N   1     -17.690  21.781 -15.404  0.00  0.00     0.010 C 
HETATM   27  C   UNK N   1     -18.413  22.332 -13.057  0.00  0.00     0.010 C 
ENDBRANCH  24  25
BRANCH  24  28
HETATM   28  C   UNK N   1     -20.220  24.157 -14.192  0.00  0.00     0.000 C 
HETATM   29  C   UNK N   1     -20.431  25.501 -13.491  0.00  0.00     0.005 C 
ENDBRANCH  24  28
ENDBRANCH  23  24
ENDBRANCH  22  23
ENDBRANCH  20  22
ENDBRANCH   5  20
BRANCH  19  30
HETATM   30  O   UNK N   1     -30.803  31.247 -17.764  0.00  0.00    -0.395 OA
HETATM   31  H   UNK N   1     -31.407  31.119 -18.541  0.00  0.00     0.210 HD
ENDBRANCH  19  30
TORSDOF 7
ENDMDL
MODEL 9
REMARK VINA RESULT:      -6.1      7.716     12.196
REMARK  7 active torsions:
REMARK  status: ('A' for Active; 'I' for Inactive)
REMARK    1  A    between atoms: O_1  and  C_22 
REMARK    2  A    between atoms: C_6  and  C_13 
REMARK    3  A    between atoms: C_13  and  C_20 
REMARK    4  A    between atoms: C_20  and  C_24 
REMARK    5  A    between atoms: C_24  and  C_25 
REMARK    6  A    between atoms: C_25  and  C_26 
REMARK    7  A    between atoms: C_25  and  C_27 
ROOT
HETATM    1  C   UNK N   1     -25.468  21.793  -9.753  0.00  0.00    -0.036 C 
HETATM    2  C   UNK N   1     -25.998  20.549 -10.501  0.00  0.00    -0.001 C 
HETATM    3  C   UNK N   1     -26.906  19.650  -9.621  0.00  0.00    -0.001 C 
HETATM    4  C   UNK N   1     -28.102  20.477  -9.090  0.00  0.00     0.003 C 
HETATM    5  C   UNK N   1     -24.583  22.408 -10.876  0.00  0.00    -0.002 C 
HETATM    6  C   UNK N   1     -26.725  22.627  -9.364  0.00  0.00     0.010 C 
HETATM    7  C   UNK N   1     -29.005  19.604  -8.129  0.00  0.00    -0.017 C 
HETATM    8  C   UNK N   1     -24.748  19.936 -11.111  0.00  0.00     0.006 C 
HETATM    9  C   UNK N   1     -27.657  21.825  -8.447  0.00  0.00     0.007 C 
HETATM   10  C   UNK N   1     -23.893  21.159 -11.504  0.00  0.00     0.006 C 
HETATM   11  C   UNK N   1     -27.440  18.462 -10.445  0.00  0.00     0.033 C 
HETATM   12  C   UNK N   1     -24.592  21.455  -8.502  0.00  0.00     0.016 C 
HETATM   13  C   UNK N   1     -29.260  18.210  -8.719  0.00  0.00    -0.072 C 
HETATM   14  C   UNK N   1     -30.386  20.324  -7.994  0.00  0.00     0.016 C 
HETATM   15  C   UNK N   1     -28.571  17.725  -9.778  0.00  0.00    -0.023 C 
HETATM   16  C   UNK N   1     -28.358  19.411  -6.726  0.00  0.00     0.020 C 
HETATM   17  C   UNK N   1     -30.345  17.359  -8.082  0.00  0.00     0.066 C 
HETATM   18  C   UNK N   1     -31.452  19.476  -7.283  0.00  0.00     0.033 C 
HETATM   19  C   UNK N   1     -31.664  18.147  -8.028  0.00  0.00     0.122 C 
ENDROOT
BRANCH   5  20
HETATM   20  C   UNK N   1     -23.581  23.569 -10.546  0.00  0.00    -0.014 C 
HETATM   21  C   UNK N   1     -23.771  24.779 -11.478  0.00  0.00     0.010 C 
BRANCH  20  22
HETATM   22  C   UNK N   1     -22.116  23.046 -10.617  0.00  0.00     0.005 C 
BRANCH  22  23
HETATM   23  C   UNK N   1     -21.036  24.123 -10.873  0.00  0.00     0.005 C 
BRANCH  23  24
HETATM   24  C   UNK N   1     -20.235  23.983 -12.207  0.00  0.00    -0.012 C 
BRANCH  24  25
HETATM   25  C   UNK N   1     -18.801  23.384 -11.982  0.00  0.00    -0.019 C 
HETATM   26  C   UNK N   1     -18.633  22.003 -12.644  0.00  0.00     0.010 C 
HETATM   27  C   UNK N   1     -18.386  23.306 -10.505  0.00  0.00     0.010 C 
ENDBRANCH  24  25
BRANCH  24  28
HETATM   28  C   UNK N   1     -20.215  25.343 -12.964  0.00  0.00     0.000 C 
HETATM   29  C   UNK N   1     -20.641  26.547 -12.121  0.00  0.00     0.005 C 
ENDBRANCH  24  28
ENDBRANCH  23  24
ENDBRANCH  22  23
ENDBRANCH  20  22
ENDBRANCH   5  20
BRANCH  19  30
HETATM   30  O   UNK N   1     -32.646  17.403  -7.357  0.00  0.00    -0.395 OA
HETATM   31  H   UNK N   1     -33.070  18.012  -6.698  0.00  0.00     0.210 HD
ENDBRANCH  19  30
TORSDOF 7
ENDMDL
