MODEL 1
REMARK VINA RESULT:      -5.5      0.000      0.000
REMARK  0 active torsions:
REMARK  status: ('A' for Active; 'I' for Inactive)
ROOT
HETATM    1  O   UNK N   1     -19.805  24.833 -13.827  0.00  0.00    -0.265 OA
HETATM    2  O   UNK N   1     -18.856  22.324 -10.166  0.00  0.00    -0.246 OA
HETATM    3  N   UNK N   1     -18.105  21.594 -12.171  0.00  0.00    -0.287 N 
HETATM    4  N   UNK N   1     -18.376  22.871 -15.404  0.00  0.00    -0.340 N 
HETATM    5  N   UNK N   1     -19.376  23.638 -11.937  0.00  0.00    -0.269 N 
HETATM    6  N   UNK N   1     -17.440  21.073 -14.434  0.00  0.00    -0.336 N 
ATOM      7  HN  UNK N   1     -16.933  20.198 -14.297  1.00  0.00     0.168 HD
HETATM    8  C   UNK N   1     -18.611  22.920 -14.080  0.00  0.00     0.149 A 
HETATM    9  C   UNK N   1     -18.045  21.837 -13.503  0.00  0.00     0.145 A 
HETATM   10  C   UNK N   1     -19.294  23.854 -13.308  0.00  0.00     0.282 A 
HETATM   11  C   UNK N   1     -18.781  22.508 -11.371  0.00  0.00     0.332 A 
HETATM   12  C   UNK N   1     -17.661  21.737 -15.596  0.00  0.00     0.184 A 
HETATM   13  C   UNK N   1     -17.464  20.394 -11.620  0.00  0.00     0.163 C 
HETATM   14  C   UNK N   1     -18.784  23.812 -16.439  0.00  0.00     0.157 C 
HETATM   15  C   UNK N   1     -20.082  24.584 -11.058  0.00  0.00     0.164 C 
ENDROOT
TORSDOF 0
ENDMDL
MODEL 2
REMARK VINA RESULT:      -5.4      4.524      6.671
REMARK  0 active torsions:
REMARK  status: ('A' for Active; 'I' for Inactive)
ROOT
HETATM    1  O   UNK N   1     -15.883  19.864 -10.248  0.00  0.00    -0.265 OA
HETATM    2  O   UNK N   1     -15.565  18.736  -5.863  0.00  0.00    -0.246 OA
HETATM    3  N   UNK N   1     -17.167  20.217  -6.460  0.00  0.00    -0.287 N 
HETATM    4  N   UNK N   1     -18.085  21.598  -9.527  0.00  0.00    -0.340 N 
HETATM    5  N   UNK N   1     -15.650  19.241  -8.071  0.00  0.00    -0.269 N 
HETATM    6  N   UNK N   1     -18.771  21.764  -7.393  0.00  0.00    -0.336 N 
ATOM      7  HN  UNK N   1     -19.289  22.042  -6.559  1.00  0.00     0.168 HD
HETATM    8  C   UNK N   1     -17.321  20.798  -8.762  0.00  0.00     0.149 A 
HETATM    9  C   UNK N   1     -17.738  20.902  -7.481  0.00  0.00     0.145 A 
HETATM   10  C   UNK N   1     -16.261  19.960  -9.092  0.00  0.00     0.282 A 
HETATM   11  C   UNK N   1     -16.105  19.370  -6.756  0.00  0.00     0.332 A 
HETATM   12  C   UNK N   1     -18.962  22.177  -8.671  0.00  0.00     0.184 A 
HETATM   13  C   UNK N   1     -17.679  20.384  -5.095  0.00  0.00     0.163 C 
HETATM   14  C   UNK N   1     -18.018  21.822 -10.966  0.00  0.00     0.157 C 
HETATM   15  C   UNK N   1     -14.524  18.335  -8.346  0.00  0.00     0.164 C 
ENDROOT
TORSDOF 0
ENDMDL
MODEL 3
REMARK VINA RESULT:      -5.4      4.523      7.431
REMARK  0 active torsions:
REMARK  status: ('A' for Active; 'I' for Inactive)
ROOT
HETATM    1  O   UNK N   1     -14.907  18.747  -8.905  0.00  0.00    -0.265 OA
HETATM    2  O   UNK N   1     -18.099  21.462 -10.647  0.00  0.00    -0.246 OA
HETATM    3  N   UNK N   1     -18.006  21.248  -8.397  0.00  0.00    -0.287 N 
HETATM    4  N   UNK N   1     -15.926  19.418  -6.280  0.00  0.00    -0.340 N 
HETATM    5  N   UNK N   1     -16.475  20.088  -9.866  0.00  0.00    -0.269 N 
HETATM    6  N   UNK N   1     -17.663  20.823  -6.043  0.00  0.00    -0.336 N 
ATOM      7  HN  UNK N   1     -18.397  21.397  -5.628  1.00  0.00     0.168 HD
HETATM    8  C   UNK N   1     -16.327  19.821  -7.499  0.00  0.00     0.149 A 
HETATM    9  C   UNK N   1     -17.372  20.665  -7.350  0.00  0.00     0.145 A 
HETATM   10  C   UNK N   1     -15.850  19.509  -8.767  0.00  0.00     0.282 A 
HETATM   11  C   UNK N   1     -17.553  20.956  -9.678  0.00  0.00     0.332 A 
HETATM   12  C   UNK N   1     -16.754  20.042  -5.409  0.00  0.00     0.184 A 
HETATM   13  C   UNK N   1     -19.134  22.155  -8.151  0.00  0.00     0.163 C 
HETATM   14  C   UNK N   1     -14.840  18.510  -5.930  0.00  0.00     0.157 C 
HETATM   15  C   UNK N   1     -16.023  19.804 -11.237  0.00  0.00     0.164 C 
ENDROOT
TORSDOF 0
ENDMDL
MODEL 4
REMARK VINA RESULT:      -5.3      1.177      3.620
REMARK  0 active torsions:
REMARK  status: ('A' for Active; 'I' for Inactive)
ROOT
HETATM    1  O   UNK N   1     -19.068  23.371 -10.395  0.00  0.00    -0.265 OA
HETATM    2  O   UNK N   1     -19.295  24.145 -14.861  0.00  0.00    -0.246 OA
HETATM    3  N   UNK N   1     -18.246  22.266 -14.166  0.00  0.00    -0.287 N 
HETATM    4  N   UNK N   1     -17.633  20.932 -11.004  0.00  0.00    -0.340 N 
HETATM    5  N   UNK N   1     -19.229  23.840 -12.617  0.00  0.00    -0.269 N 
HETATM    6  N   UNK N   1     -17.195  20.353 -13.130  0.00  0.00    -0.336 N 
ATOM      7  HN  UNK N   1     -16.860  19.842 -13.947  1.00  0.00     0.168 HD
HETATM    8  C   UNK N   1     -18.135  21.874 -11.822  0.00  0.00     0.149 A 
HETATM    9  C   UNK N   1     -17.869  21.520 -13.099  0.00  0.00     0.145 A 
HETATM   10  C   UNK N   1     -18.826  23.049 -11.547  0.00  0.00     0.282 A 
HETATM   11  C   UNK N   1     -18.939  23.447 -13.925  0.00  0.00     0.332 A 
HETATM   12  C   UNK N   1     -17.065  20.015 -11.823  0.00  0.00     0.184 A 
HETATM   13  C   UNK N   1     -17.919  21.812 -15.523  0.00  0.00     0.163 C 
HETATM   14  C   UNK N   1     -17.671  20.873  -9.548  0.00  0.00     0.157 C 
HETATM   15  C   UNK N   1     -19.965  25.096 -12.401  0.00  0.00     0.164 C 
ENDROOT
TORSDOF 0
ENDMDL
MODEL 5
REMARK VINA RESULT:      -5.3      4.323      5.998
REMARK  0 active torsions:
REMARK  status: ('A' for Active; 'I' for Inactive)
ROOT
HETATM    1  O   UNK N   1     -19.084  21.906  -7.439  0.00  0.00    -0.265 OA
HETATM    2  O   UNK N   1     -16.397  18.754  -5.584  0.00  0.00    -0.246 OA
HETATM    3  N   UNK N   1     -16.029  19.319  -7.743  0.00  0.00    -0.287 N 
HETATM    4  N   UNK N   1     -17.580  21.584  -9.891  0.00  0.00    -0.340 N 
HETATM    5  N   UNK N   1     -17.785  20.334  -6.427  0.00  0.00    -0.269 N 
HETATM    6  N   UNK N   1     -15.878  20.124 -10.015  0.00  0.00    -0.336 N 
ATOM      7  HN  UNK N   1     -15.094  19.574 -10.370  1.00  0.00     0.168 HD
HETATM    8  C   UNK N   1     -17.445  20.972  -8.701  0.00  0.00     0.149 A 
HETATM    9  C   UNK N   1     -16.420  20.096  -8.782  0.00  0.00     0.145 A 
HETATM   10  C   UNK N   1     -18.158  21.115  -7.515  0.00  0.00     0.282 A 
HETATM   11  C   UNK N   1     -16.721  19.437  -6.543  0.00  0.00     0.332 A 
HETATM   12  C   UNK N   1     -16.614  21.051 -10.676  0.00  0.00     0.184 A 
HETATM   13  C   UNK N   1     -14.904  18.391  -7.911  0.00  0.00     0.163 C 
HETATM   14  C   UNK N   1     -18.543  22.603 -10.290  0.00  0.00     0.157 C 
HETATM   15  C   UNK N   1     -18.492  20.432  -5.141  0.00  0.00     0.164 C 
ENDROOT
TORSDOF 0
ENDMDL
MODEL 6
REMARK VINA RESULT:      -5.2      5.175      6.980
REMARK  0 active torsions:
REMARK  status: ('A' for Active; 'I' for Inactive)
ROOT
HETATM    1  O   UNK N   1     -17.873  19.927  -5.606  0.00  0.00    -0.265 OA
HETATM    2  O   UNK N   1     -14.768  18.282  -8.478  0.00  0.00    -0.246 OA
HETATM    3  N   UNK N   1     -16.181  19.872  -9.247  0.00  0.00    -0.287 N 
HETATM    4  N   UNK N   1     -18.795  21.633  -7.755  0.00  0.00    -0.340 N 
HETATM    5  N   UNK N   1     -16.284  19.045  -6.977  0.00  0.00    -0.269 N 
HETATM    6  N   UNK N   1     -17.817  21.568  -9.777  0.00  0.00    -0.336 N 
ATOM      7  HN  UNK N   1     -17.594  21.763 -10.754  1.00  0.00     0.168 HD
HETATM    8  C   UNK N   1     -17.803  20.724  -7.729  0.00  0.00     0.149 A 
HETATM    9  C   UNK N   1     -17.219  20.691  -8.948  0.00  0.00     0.145 A 
HETATM   10  C   UNK N   1     -17.348  19.898  -6.707  0.00  0.00     0.282 A 
HETATM   11  C   UNK N   1     -15.702  19.033  -8.247  0.00  0.00     0.332 A 
HETATM   12  C   UNK N   1     -18.785  22.134  -9.014  0.00  0.00     0.184 A 
HETATM   13  C   UNK N   1     -15.601  19.896 -10.595  0.00  0.00     0.163 C 
HETATM   14  C   UNK N   1     -19.705  22.022  -6.685  0.00  0.00     0.157 C 
HETATM   15  C   UNK N   1     -15.749  18.144  -5.944  0.00  0.00     0.164 C 
ENDROOT
TORSDOF 0
ENDMDL
MODEL 7
REMARK VINA RESULT:      -5.1      1.717      3.667
REMARK  0 active torsions:
REMARK  status: ('A' for Active; 'I' for Inactive)
ROOT
HETATM    1  O   UNK N   1     -19.763  24.996 -15.157  0.00  0.00    -0.265 OA
HETATM    2  O   UNK N   1     -17.462  21.237 -14.075  0.00  0.00    -0.246 OA
HETATM    3  N   UNK N   1     -18.399  22.424 -12.393  0.00  0.00    -0.287 N 
HETATM    4  N   UNK N   1     -20.287  25.354 -12.333  0.00  0.00    -0.340 N 
HETATM    5  N   UNK N   1     -18.591  23.097 -14.707  0.00  0.00    -0.269 N 
HETATM    6  N   UNK N   1     -19.503  23.889 -10.821  0.00  0.00    -0.336 N 
ATOM      7  HN  UNK N   1     -19.297  23.425  -9.936  1.00  0.00     0.168 HD
HETATM    8  C   UNK N   1     -19.602  24.391 -12.976  0.00  0.00     0.149 A 
HETATM    9  C   UNK N   1     -19.133  23.514 -12.061  0.00  0.00     0.145 A 
HETATM   10  C   UNK N   1     -19.341  24.205 -14.329  0.00  0.00     0.282 A 
HETATM   11  C   UNK N   1     -18.121  22.208 -13.738  0.00  0.00     0.332 A 
HETATM   12  C   UNK N   1     -20.213  25.027 -11.021  0.00  0.00     0.184 A 
HETATM   13  C   UNK N   1     -17.927  21.517 -11.339  0.00  0.00     0.163 C 
HETATM   14  C   UNK N   1     -20.973  26.514 -12.890  0.00  0.00     0.157 C 
HETATM   15  C   UNK N   1     -18.277  22.836 -16.120  0.00  0.00     0.164 C 
ENDROOT
TORSDOF 0
ENDMDL
MODEL 8
REMARK VINA RESULT:      -5.1      4.480      6.873
REMARK  0 active torsions:
REMARK  status: ('A' for Active; 'I' for Inactive)
ROOT
HETATM    1  O   UNK N   1     -19.043  22.216  -8.422  0.00  0.00    -0.265 OA
HETATM    2  O   UNK N   1     -15.686  20.059 -10.586  0.00  0.00    -0.246 OA
HETATM    3  N   UNK N   1     -16.086  19.499  -8.431  0.00  0.00    -0.287 N 
HETATM    4  N   UNK N   1     -18.409  20.627  -6.088  0.00  0.00    -0.340 N 
HETATM    5  N   UNK N   1     -17.379  21.186  -9.585  0.00  0.00    -0.269 N 
HETATM    6  N   UNK N   1     -16.746  19.117  -6.138  0.00  0.00    -0.336 N 
ATOM      7  HN  UNK N   1     -16.086  18.390  -5.859  1.00  0.00     0.168 HD
HETATM    8  C   UNK N   1     -17.849  20.638  -7.311  0.00  0.00     0.149 A 
HETATM    9  C   UNK N   1     -16.850  19.729  -7.334  0.00  0.00     0.145 A 
HETATM   10  C   UNK N   1     -18.141  21.394  -8.441  0.00  0.00     0.282 A 
HETATM   11  C   UNK N   1     -16.352  20.238  -9.578  0.00  0.00     0.332 A 
HETATM   12  C   UNK N   1     -17.720  19.692  -5.391  0.00  0.00     0.184 A 
HETATM   13  C   UNK N   1     -15.020  18.492  -8.377  0.00  0.00     0.163 C 
HETATM   14  C   UNK N   1     -19.517  21.428  -5.583  0.00  0.00     0.157 C 
HETATM   15  C   UNK N   1     -17.631  21.948 -10.818  0.00  0.00     0.164 C 
ENDROOT
TORSDOF 0
ENDMDL
MODEL 9
REMARK VINA RESULT:      -5.1      1.531      3.072
REMARK  0 active torsions:
REMARK  status: ('A' for Active; 'I' for Inactive)
ROOT
HETATM    1  O   UNK N   1     -17.669  21.403 -13.934  0.00  0.00    -0.265 OA
HETATM    2  O   UNK N   1     -19.124  22.834  -9.881  0.00  0.00    -0.246 OA
HETATM    3  N   UNK N   1     -19.759  24.009 -11.706  0.00  0.00    -0.287 N 
HETATM    4  N   UNK N   1     -19.114  23.619 -15.110  0.00  0.00    -0.340 N 
HETATM    5  N   UNK N   1     -18.352  22.048 -11.861  0.00  0.00    -0.269 N 
HETATM    6  N   UNK N   1     -20.270  25.052 -13.824  0.00  0.00    -0.336 N 
ATOM      7  HN  UNK N   1     -20.856  25.833 -13.526  1.00  0.00     0.168 HD
HETATM    8  C   UNK N   1     -18.989  23.246 -13.824  0.00  0.00     0.149 A 
HETATM    9  C   UNK N   1     -19.686  24.112 -13.056  0.00  0.00     0.145 A 
HETATM   10  C   UNK N   1     -18.300  22.187 -13.243  0.00  0.00     0.282 A 
HETATM   11  C   UNK N   1     -19.082  22.960 -11.095  0.00  0.00     0.332 A 
HETATM   12  C   UNK N   1     -19.899  24.722 -15.086  0.00  0.00     0.184 A 
HETATM   13  C   UNK N   1     -20.540  24.990 -10.943  0.00  0.00     0.163 C 
HETATM   14  C   UNK N   1     -18.544  22.998 -16.300  0.00  0.00     0.157 C 
HETATM   15  C   UNK N   1     -17.649  20.951 -11.178  0.00  0.00     0.164 C 
ENDROOT
TORSDOF 0
ENDMDL
