MODEL 1
REMARK VINA RESULT:      -4.5      0.000      0.000
REMARK  7 active torsions:
REMARK  status: ('A' for Active; 'I' for Inactive)
REMARK    1  A    between atoms: O_2  and  C_10 
REMARK       I    between atoms: N_4  and  C_9 
REMARK    2  A    between atoms: N_4  and  C_11 
REMARK    3  A    between atoms: N_5  and  C_7 
REMARK    4  A    between atoms: C_6  and  C_7 
REMARK    5  A    between atoms: C_6  and  C_8 
REMARK    6  A    between atoms: C_7  and  C_10 
REMARK    7  A    between atoms: C_8  and  C_9 
ROOT
HETATM    1  C   UNK N   1     -36.569  -2.249  -6.398  0.00  0.00     0.056 C 
ENDROOT
BRANCH   1   2
HETATM    2  C   UNK N   1     -37.597  -1.197  -5.932  0.00  0.00     0.315 C 
BRANCH   2   3
HETATM    3  N   UNK N   1     -37.563  -0.011  -6.790  0.00  0.00     0.093 N 
HETATM    4  H   UNK N   1     -36.598   0.114  -7.175  0.00  0.00     0.314 HD
HETATM    5  H   UNK N   1     -37.806   0.844  -6.236  0.00  0.00     0.314 HD
ENDBRANCH   2   3
BRANCH   2   6
HETATM    6  C   UNK N   1     -37.348  -0.807  -4.497  0.00  0.00     0.173 C 
HETATM    7  O   UNK N   1     -36.803  -1.589  -3.731  0.00  0.00    -0.648 OA
BRANCH   6   8
HETATM    8  O   UNK N   1     -37.787   0.386  -4.044  0.00  0.00    -0.775 OA
HETATM    9  H   UNK N   1     -38.188   0.472  -3.167  0.00  0.00     0.167 HD
ENDBRANCH   6   8
ENDBRANCH   2   6
ENDBRANCH   1   2
BRANCH   1  10
HETATM   10  C   UNK N   1     -36.772  -2.601  -7.885  0.00  0.00     0.105 C 
BRANCH  10  11
HETATM   11  C   UNK N   1     -38.047  -3.359  -8.160  0.00  0.00     0.217 C 
HETATM   12  O   UNK N   1     -38.224  -4.449  -7.644  0.00  0.00    -0.274 OA
HETATM   13  N   UNK N   1     -38.978  -2.795  -8.989  0.00  0.00    -0.361 N 
HETATM   14  H   UNK N   1     -38.760  -1.869  -9.386  0.00  0.00     0.162 HD
BRANCH  13  15
HETATM   15  C   UNK N   1     -40.268  -3.364  -9.380  0.00  0.00     0.118 C 
HETATM   16  C   UNK N   1     -40.294  -4.224 -10.645  0.00  0.00     0.026 C 
ENDBRANCH  13  15
ENDBRANCH  10  11
ENDBRANCH   1  10
TORSDOF 7
ENDMDL
MODEL 2
REMARK VINA RESULT:      -4.4     31.506     32.243
REMARK  7 active torsions:
REMARK  status: ('A' for Active; 'I' for Inactive)
REMARK    1  A    between atoms: O_2  and  C_10 
REMARK       I    between atoms: N_4  and  C_9 
REMARK    2  A    between atoms: N_4  and  C_11 
REMARK    3  A    between atoms: N_5  and  C_7 
REMARK    4  A    between atoms: C_6  and  C_7 
REMARK    5  A    between atoms: C_6  and  C_8 
REMARK    6  A    between atoms: C_7  and  C_10 
REMARK    7  A    between atoms: C_8  and  C_9 
ROOT
HETATM    1  C   UNK N   1     -17.948  21.275 -11.518  0.00  0.00     0.056 C 
ENDROOT
BRANCH   1   2
HETATM    2  C   UNK N   1     -17.673  21.550 -10.025  0.00  0.00     0.315 C 
BRANCH   2   3
HETATM    3  N   UNK N   1     -17.323  22.954  -9.804  0.00  0.00     0.093 N 
HETATM    4  H   UNK N   1     -16.338  23.123 -10.115  0.00  0.00     0.314 HD
HETATM    5  H   UNK N   1     -17.387  23.187  -8.785  0.00  0.00     0.314 HD
ENDBRANCH   2   3
BRANCH   2   6
HETATM    6  C   UNK N   1     -16.575  20.654  -9.511  0.00  0.00     0.173 C 
HETATM    7  O   UNK N   1     -16.537  20.340  -8.330  0.00  0.00    -0.648 OA
BRANCH   6   8
HETATM    8  O   UNK N   1     -15.596  20.249 -10.348  0.00  0.00    -0.775 OA
HETATM    9  H   UNK N   1     -15.797  19.721 -11.134  0.00  0.00     0.167 HD
ENDBRANCH   6   8
ENDBRANCH   2   6
ENDBRANCH   1   2
BRANCH   1  10
HETATM   10  C   UNK N   1     -18.385  22.561 -12.247  0.00  0.00     0.105 C 
BRANCH  10  11
HETATM   11  C   UNK N   1     -18.278  22.474 -13.748  0.00  0.00     0.217 C 
HETATM   12  O   UNK N   1     -17.599  21.597 -14.255  0.00  0.00    -0.274 OA
HETATM   13  N   UNK N   1     -18.951  23.392 -14.508  0.00  0.00    -0.361 N 
HETATM   14  H   UNK N   1     -19.506  24.103 -14.009  0.00  0.00     0.162 HD
BRANCH  13  15
HETATM   15  C   UNK N   1     -18.974  23.479 -15.968  0.00  0.00     0.118 C 
HETATM   16  C   UNK N   1     -17.884  24.323 -16.632  0.00  0.00     0.026 C 
ENDBRANCH  13  15
ENDBRANCH  10  11
ENDBRANCH   1  10
TORSDOF 7
ENDMDL
MODEL 3
REMARK VINA RESULT:      -4.4     30.504     31.150
REMARK  7 active torsions:
REMARK  status: ('A' for Active; 'I' for Inactive)
REMARK    1  A    between atoms: O_2  and  C_10 
REMARK       I    between atoms: N_4  and  C_9 
REMARK    2  A    between atoms: N_4  and  C_11 
REMARK    3  A    between atoms: N_5  and  C_7 
REMARK    4  A    between atoms: C_6  and  C_7 
REMARK    5  A    between atoms: C_6  and  C_8 
REMARK    6  A    between atoms: C_7  and  C_10 
REMARK    7  A    between atoms: C_8  and  C_9 
ROOT
HETATM    1  C   UNK N   1     -16.940  18.964  -7.156  0.00  0.00     0.056 C 
ENDROOT
BRANCH   1   2
HETATM    2  C   UNK N   1     -15.522  18.665  -6.626  0.00  0.00     0.315 C 
BRANCH   2   3
HETATM    3  N   UNK N   1     -15.070  19.712  -5.709  0.00  0.00     0.093 N 
HETATM    4  H   UNK N   1     -15.881  20.057  -5.144  0.00  0.00     0.314 HD
HETATM    5  H   UNK N   1     -14.681  20.522  -6.247  0.00  0.00     0.314 HD
ENDBRANCH   2   3
BRANCH   2   6
HETATM    6  C   UNK N   1     -14.547  18.515  -7.766  0.00  0.00     0.173 C 
HETATM    7  O   UNK N   1     -14.906  18.721  -8.916  0.00  0.00    -0.648 OA
BRANCH   6   8
HETATM    8  O   UNK N   1     -13.289  18.094  -7.517  0.00  0.00    -0.775 OA
HETATM    9  H   UNK N   1     -12.596  18.715  -7.253  0.00  0.00     0.167 HD
ENDBRANCH   6   8
ENDBRANCH   2   6
ENDBRANCH   1   2
BRANCH   1  10
HETATM   10  C   UNK N   1     -17.258  20.470  -7.065  0.00  0.00     0.105 C 
BRANCH  10  11
HETATM   11  C   UNK N   1     -17.640  21.091  -8.385  0.00  0.00     0.217 C 
HETATM   12  O   UNK N   1     -18.365  22.071  -8.405  0.00  0.00    -0.274 OA
HETATM   13  N   UNK N   1     -17.158  20.530  -9.537  0.00  0.00    -0.361 N 
HETATM   14  H   UNK N   1     -16.549  19.704  -9.442  0.00  0.00     0.162 HD
BRANCH  13  15
HETATM   15  C   UNK N   1     -17.411  20.977 -10.907  0.00  0.00     0.118 C 
HETATM   16  C   UNK N   1     -17.246  19.939 -12.019  0.00  0.00     0.026 C 
ENDBRANCH  13  15
ENDBRANCH  10  11
ENDBRANCH   1  10
TORSDOF 7
ENDMDL
MODEL 4
REMARK VINA RESULT:      -4.3     46.389     48.262
REMARK  7 active torsions:
REMARK  status: ('A' for Active; 'I' for Inactive)
REMARK    1  A    between atoms: O_2  and  C_10 
REMARK       I    between atoms: N_4  and  C_9 
REMARK    2  A    between atoms: N_4  and  C_11 
REMARK    3  A    between atoms: N_5  and  C_7 
REMARK    4  A    between atoms: C_6  and  C_7 
REMARK    5  A    between atoms: C_6  and  C_8 
REMARK    6  A    between atoms: C_7  and  C_10 
REMARK    7  A    between atoms: C_8  and  C_9 
ROOT
HETATM    1  C   UNK N   1     -30.092  44.302  -9.154  0.00  0.00     0.056 C 
ENDROOT
BRANCH   1   2
HETATM    2  C   UNK N   1     -31.003  43.102  -8.822  0.00  0.00     0.315 C 
BRANCH   2   3
HETATM    3  N   UNK N   1     -32.416  43.474  -8.908  0.00  0.00     0.093 N 
HETATM    4  H   UNK N   1     -32.976  42.650  -9.230  0.00  0.00     0.314 HD
HETATM    5  H   UNK N   1     -32.545  44.247  -9.604  0.00  0.00     0.314 HD
ENDBRANCH   2   3
BRANCH   2   6
HETATM    6  C   UNK N   1     -30.691  42.560  -7.450  0.00  0.00     0.173 C 
HETATM    7  O   UNK N   1     -30.576  41.355  -7.275  0.00  0.00    -0.648 OA
BRANCH   6   8
HETATM    8  O   UNK N   1     -30.601  43.405  -6.402  0.00  0.00    -0.775 OA
HETATM    9  H   UNK N   1     -30.010  44.171  -6.426  0.00  0.00     0.167 HD
ENDBRANCH   6   8
ENDBRANCH   2   6
ENDBRANCH   1   2
BRANCH   1  10
HETATM   10  C   UNK N   1     -30.925  45.537  -9.550  0.00  0.00     0.105 C 
BRANCH  10  11
HETATM   11  C   UNK N   1     -31.051  46.561  -8.451  0.00  0.00     0.217 C 
HETATM   12  O   UNK N   1     -31.490  46.229  -7.363  0.00  0.00    -0.274 OA
HETATM   13  N   UNK N   1     -30.664  47.849  -8.707  0.00  0.00    -0.361 N 
HETATM   14  H   UNK N   1     -30.300  48.055  -9.649  0.00  0.00     0.162 HD
BRANCH  13  15
HETATM   15  C   UNK N   1     -30.708  48.982  -7.783  0.00  0.00     0.118 C 
HETATM   16  C   UNK N   1     -30.276  50.344  -8.330  0.00  0.00     0.026 C 
ENDBRANCH  13  15
ENDBRANCH  10  11
ENDBRANCH   1  10
TORSDOF 7
ENDMDL
MODEL 5
REMARK VINA RESULT:      -4.3     29.187     30.800
REMARK  7 active torsions:
REMARK  status: ('A' for Active; 'I' for Inactive)
REMARK    1  A    between atoms: O_2  and  C_10 
REMARK       I    between atoms: N_4  and  C_9 
REMARK    2  A    between atoms: N_4  and  C_11 
REMARK    3  A    between atoms: N_5  and  C_7 
REMARK    4  A    between atoms: C_6  and  C_7 
REMARK    5  A    between atoms: C_6  and  C_8 
REMARK    6  A    between atoms: C_7  and  C_10 
REMARK    7  A    between atoms: C_8  and  C_9 
ROOT
HETATM    1  C   UNK N   1     -17.414  20.815  -8.535  0.00  0.00     0.056 C 
ENDROOT
BRANCH   1   2
HETATM    2  C   UNK N   1     -16.573  21.390  -9.693  0.00  0.00     0.315 C 
BRANCH   2   3
HETATM    3  N   UNK N   1     -17.176  22.613 -10.226  0.00  0.00     0.093 N 
HETATM    4  H   UNK N   1     -16.601  23.439  -9.942  0.00  0.00     0.314 HD
HETATM    5  H   UNK N   1     -18.141  22.739  -9.839  0.00  0.00     0.314 HD
ENDBRANCH   2   3
BRANCH   2   6
HETATM    6  C   UNK N   1     -16.410  20.370 -10.791  0.00  0.00     0.173 C 
HETATM    7  O   UNK N   1     -17.372  20.030 -11.465  0.00  0.00    -0.648 OA
BRANCH   6   8
HETATM    8  O   UNK N   1     -15.209  19.787 -10.987  0.00  0.00    -0.775 OA
HETATM    9  H   UNK N   1     -15.140  18.858 -11.250  0.00  0.00     0.167 HD
ENDBRANCH   6   8
ENDBRANCH   2   6
ENDBRANCH   1   2
BRANCH   1  10
HETATM   10  C   UNK N   1     -16.842  19.469  -8.049  0.00  0.00     0.105 C 
BRANCH  10  11
HETATM   11  C   UNK N   1     -17.001  19.240  -6.567  0.00  0.00     0.217 C 
HETATM   12  O   UNK N   1     -16.461  19.996  -5.778  0.00  0.00    -0.274 OA
HETATM   13  N   UNK N   1     -17.756  18.180  -6.145  0.00  0.00    -0.361 N 
HETATM   14  H   UNK N   1     -18.185  17.586  -6.870  0.00  0.00     0.162 HD
BRANCH  13  15
HETATM   15  C   UNK N   1     -18.030  17.789  -4.762  0.00  0.00     0.118 C 
HETATM   16  C   UNK N   1     -16.993  16.902  -4.071  0.00  0.00     0.026 C 
ENDBRANCH  13  15
ENDBRANCH  10  11
ENDBRANCH   1  10
TORSDOF 7
ENDMDL
MODEL 6
REMARK VINA RESULT:      -4.3     46.894     48.786
REMARK  7 active torsions:
REMARK  status: ('A' for Active; 'I' for Inactive)
REMARK    1  A    between atoms: O_2  and  C_10 
REMARK       I    between atoms: N_4  and  C_9 
REMARK    2  A    between atoms: N_4  and  C_11 
REMARK    3  A    between atoms: N_5  and  C_7 
REMARK    4  A    between atoms: C_6  and  C_7 
REMARK    5  A    between atoms: C_6  and  C_8 
REMARK    6  A    between atoms: C_7  and  C_10 
REMARK    7  A    between atoms: C_8  and  C_9 
ROOT
HETATM    1  C   UNK N   1     -32.116  45.060  -7.587  0.00  0.00     0.056 C 
ENDROOT
BRANCH   1   2
HETATM    2  C   UNK N   1     -31.015  44.166  -6.981  0.00  0.00     0.315 C 
BRANCH   2   3
HETATM    3  N   UNK N   1     -29.936  43.934  -7.943  0.00  0.00     0.093 N 
HETATM    4  H   UNK N   1     -29.738  42.909  -8.006  0.00  0.00     0.314 HD
HETATM    5  H   UNK N   1     -29.061  44.416  -7.629  0.00  0.00     0.314 HD
ENDBRANCH   2   3
BRANCH   2   6
HETATM    6  C   UNK N   1     -31.589  42.851  -6.518  0.00  0.00     0.173 C 
HETATM    7  O   UNK N   1     -31.036  41.800  -6.809  0.00  0.00    -0.648 OA
BRANCH   6   8
HETATM    8  O   UNK N   1     -32.751  42.834  -5.832  0.00  0.00    -0.775 OA
HETATM    9  H   UNK N   1     -32.773  42.610  -4.891  0.00  0.00     0.167 HD
ENDBRANCH   6   8
ENDBRANCH   2   6
ENDBRANCH   1   2
BRANCH   1  10
HETATM   10  C   UNK N   1     -31.898  46.539  -7.212  0.00  0.00     0.105 C 
BRANCH  10  11
HETATM   11  C   UNK N   1     -31.098  47.311  -8.231  0.00  0.00     0.217 C 
HETATM   12  O   UNK N   1     -30.772  46.774  -9.276  0.00  0.00    -0.274 OA
HETATM   13  N   UNK N   1     -30.756  48.606  -7.952  0.00  0.00    -0.361 N 
HETATM   14  H   UNK N   1     -31.069  48.994  -7.049  0.00  0.00     0.162 HD
BRANCH  13  15
HETATM   15  C   UNK N   1     -29.988  49.517  -8.801  0.00  0.00     0.118 C 
HETATM   16  C   UNK N   1     -30.073  51.010  -8.475  0.00  0.00     0.026 C 
ENDBRANCH  13  15
ENDBRANCH  10  11
ENDBRANCH   1  10
TORSDOF 7
ENDMDL
MODEL 7
REMARK VINA RESULT:      -4.3     29.296     30.501
REMARK  7 active torsions:
REMARK  status: ('A' for Active; 'I' for Inactive)
REMARK    1  A    between atoms: O_2  and  C_10 
REMARK       I    between atoms: N_4  and  C_9 
REMARK    2  A    between atoms: N_4  and  C_11 
REMARK    3  A    between atoms: N_5  and  C_7 
REMARK    4  A    between atoms: C_6  and  C_7 
REMARK    5  A    between atoms: C_6  and  C_8 
REMARK    6  A    between atoms: C_7  and  C_10 
REMARK    7  A    between atoms: C_8  and  C_9 
ROOT
HETATM    1  C   UNK N   1     -17.144  20.623  -8.460  0.00  0.00     0.056 C 
ENDROOT
BRANCH   1   2
HETATM    2  C   UNK N   1     -16.804  19.520  -7.436  0.00  0.00     0.315 C 
BRANCH   2   3
HETATM    3  N   UNK N   1     -16.444  18.270  -8.109  0.00  0.00     0.093 N 
HETATM    4  H   UNK N   1     -16.172  17.555  -7.395  0.00  0.00     0.314 HD
HETATM    5  H   UNK N   1     -15.626  18.423  -8.745  0.00  0.00     0.314 HD
ENDBRANCH   2   3
BRANCH   2   6
HETATM    6  C   UNK N   1     -17.959  19.290  -6.496  0.00  0.00     0.173 C 
HETATM    7  O   UNK N   1     -18.461  20.229  -5.894  0.00  0.00    -0.648 OA
BRANCH   6   8
HETATM    8  O   UNK N   1     -18.398  18.033  -6.272  0.00  0.00    -0.775 OA
HETATM    9  H   UNK N   1     -17.938  17.444  -5.657  0.00  0.00     0.167 HD
ENDBRANCH   6   8
ENDBRANCH   2   6
ENDBRANCH   1   2
BRANCH   1  10
HETATM   10  C   UNK N   1     -16.386  20.403  -9.784  0.00  0.00     0.105 C 
BRANCH  10  11
HETATM   11  C   UNK N   1     -17.233  20.620 -11.012  0.00  0.00     0.217 C 
HETATM   12  O   UNK N   1     -17.380  19.713 -11.813  0.00  0.00    -0.274 OA
HETATM   13  N   UNK N   1     -17.820  21.843 -11.196  0.00  0.00    -0.361 N 
HETATM   14  H   UNK N   1     -17.653  22.561 -10.475  0.00  0.00     0.162 HD
BRANCH  13  15
HETATM   15  C   UNK N   1     -18.671  22.253 -12.313  0.00  0.00     0.118 C 
HETATM   16  C   UNK N   1     -20.123  22.610 -11.987  0.00  0.00     0.026 C 
ENDBRANCH  13  15
ENDBRANCH  10  11
ENDBRANCH   1  10
TORSDOF 7
ENDMDL
MODEL 8
REMARK VINA RESULT:      -4.3     43.120     44.845
REMARK  7 active torsions:
REMARK  status: ('A' for Active; 'I' for Inactive)
REMARK    1  A    between atoms: O_2  and  C_10 
REMARK       I    between atoms: N_4  and  C_9 
REMARK    2  A    between atoms: N_4  and  C_11 
REMARK    3  A    between atoms: N_5  and  C_7 
REMARK    4  A    between atoms: C_6  and  C_7 
REMARK    5  A    between atoms: C_6  and  C_8 
REMARK    6  A    between atoms: C_7  and  C_10 
REMARK    7  A    between atoms: C_8  and  C_9 
ROOT
HETATM    1  C   UNK N   1     -30.401  42.951  -7.702  0.00  0.00     0.056 C 
ENDROOT
BRANCH   1   2
HETATM    2  C   UNK N   1     -31.268  43.644  -6.632  0.00  0.00     0.315 C 
BRANCH   2   3
HETATM    3  N   UNK N   1     -32.288  42.733  -6.109  0.00  0.00     0.093 N 
HETATM    4  H   UNK N   1     -33.170  42.840  -6.662  0.00  0.00     0.314 HD
HETATM    5  H   UNK N   1     -32.501  42.963  -5.110  0.00  0.00     0.314 HD
ENDBRANCH   2   3
BRANCH   2   6
HETATM    6  C   UNK N   1     -31.917  44.884  -7.192  0.00  0.00     0.173 C 
HETATM    7  O   UNK N   1     -31.384  45.501  -8.103  0.00  0.00    -0.648 OA
BRANCH   6   8
HETATM    8  O   UNK N   1     -33.060  45.346  -6.642  0.00  0.00    -0.775 OA
HETATM    9  H   UNK N   1     -33.134  45.490  -5.688  0.00  0.00     0.167 HD
ENDBRANCH   6   8
ENDBRANCH   2   6
ENDBRANCH   1   2
BRANCH   1  10
HETATM   10  C   UNK N   1     -30.453  41.417  -7.550  0.00  0.00     0.105 C 
BRANCH  10  11
HETATM   11  C   UNK N   1     -30.296  40.673  -8.851  0.00  0.00     0.217 C 
HETATM   12  O   UNK N   1     -30.373  41.278  -9.907  0.00  0.00    -0.274 OA
HETATM   13  N   UNK N   1     -30.067  39.324  -8.812  0.00  0.00    -0.361 N 
HETATM   14  H   UNK N   1     -30.010  38.881  -7.883  0.00  0.00     0.162 HD
BRANCH  13  15
HETATM   15  C   UNK N   1     -29.888  38.427  -9.954  0.00  0.00     0.118 C 
HETATM   16  C   UNK N   1     -31.156  37.921 -10.646  0.00  0.00     0.026 C 
ENDBRANCH  13  15
ENDBRANCH  10  11
ENDBRANCH   1  10
TORSDOF 7
ENDMDL
MODEL 9
REMARK VINA RESULT:      -4.3     31.228     32.443
REMARK  7 active torsions:
REMARK  status: ('A' for Active; 'I' for Inactive)
REMARK    1  A    between atoms: O_2  and  C_10 
REMARK       I    between atoms: N_4  and  C_9 
REMARK    2  A    between atoms: N_4  and  C_11 
REMARK    3  A    between atoms: N_5  and  C_7 
REMARK    4  A    between atoms: C_6  and  C_7 
REMARK    5  A    between atoms: C_6  and  C_8 
REMARK    6  A    between atoms: C_7  and  C_10 
REMARK    7  A    between atoms: C_8  and  C_9 
ROOT
HETATM    1  C   UNK N   1     -18.222  23.002 -12.179  0.00  0.00     0.056 C 
ENDROOT
BRANCH   1   2
HETATM    2  C   UNK N   1     -18.424  21.573 -11.636  0.00  0.00     0.315 C 
BRANCH   2   3
HETATM    3  N   UNK N   1     -17.974  21.468 -10.247  0.00  0.00     0.093 N 
HETATM    4  H   UNK N   1     -17.341  22.270 -10.023  0.00  0.00     0.314 HD
HETATM    5  H   UNK N   1     -17.436  20.580 -10.107  0.00  0.00     0.314 HD
ENDBRANCH   2   3
BRANCH   2   6
HETATM    6  C   UNK N   1     -17.699  20.568 -12.495  0.00  0.00     0.173 C 
HETATM    7  O   UNK N   1     -17.252  19.542 -12.000  0.00  0.00    -0.648 OA
BRANCH   6   8
HETATM    8  O   UNK N   1     -17.490  20.833 -13.801  0.00  0.00    -0.775 OA
HETATM    9  H   UNK N   1     -16.822  20.351 -14.310  0.00  0.00     0.167 HD
ENDBRANCH   6   8
ENDBRANCH   2   6
ENDBRANCH   1   2
BRANCH   1  10
HETATM   10  C   UNK N   1     -19.535  23.566 -12.758  0.00  0.00     0.105 C 
BRANCH  10  11
HETATM   11  C   UNK N   1     -19.484  23.819 -14.244  0.00  0.00     0.217 C 
HETATM   12  O   UNK N   1     -20.359  24.482 -14.774  0.00  0.00    -0.274 OA
HETATM   13  N   UNK N   1     -18.446  23.291 -14.963  0.00  0.00    -0.361 N 
HETATM   14  H   UNK N   1     -17.742  22.745 -14.446  0.00  0.00     0.162 HD
BRANCH  13  15
HETATM   15  C   UNK N   1     -18.217  23.420 -16.403  0.00  0.00     0.118 C 
HETATM   16  C   UNK N   1     -17.152  24.422 -16.851  0.00  0.00     0.026 C 
ENDBRANCH  13  15
ENDBRANCH  10  11
ENDBRANCH   1  10
TORSDOF 7
ENDMDL
