MODEL 1
REMARK VINA RESULT:      -6.9      0.000      0.000
REMARK  5 active torsions:
REMARK  status: ('A' for Active; 'I' for Inactive)
REMARK    1  A    between atoms: O_1  and  C_10 
REMARK    2  A    between atoms: O_2  and  C_11 
REMARK    3  A    between atoms: O_3  and  C_17 
REMARK    4  A    between atoms: C_4  and  C_6 
REMARK    5  A    between atoms: C_5  and  C_7 
ROOT
HETATM    1  C   UNK N   1     -17.599  21.134 -10.624  0.00  0.00    -0.031 A 
HETATM    2  C   UNK N   1     -18.282  21.687  -9.522  0.00  0.00     0.048 A 
HETATM    3  C   UNK N   1     -16.562  20.216 -10.396  0.00  0.00     0.048 A 
HETATM    4  C   UNK N   1     -16.221  19.838  -9.091  0.00  0.00     0.069 A 
HETATM    5  C   UNK N   1     -17.929  21.326  -8.220  0.00  0.00     0.069 A 
HETATM    6  C   UNK N   1     -16.902  20.397  -8.005  0.00  0.00     0.073 A 
ENDROOT
BRANCH   1   7
HETATM    7  C   UNK N   1     -17.920  21.503 -12.026  0.00  0.00     0.012 C 
HETATM    8  C   UNK N   1     -18.347  22.728 -12.395  0.00  0.00     0.012 C 
BRANCH   8   9
HETATM    9  C   UNK N   1     -18.652  23.088 -13.804  0.00  0.00    -0.036 A 
HETATM   10  C   UNK N   1     -19.698  23.971 -14.144  0.00  0.00     0.014 A 
HETATM   11  C   UNK N   1     -19.963  24.268 -15.481  0.00  0.00     0.037 A 
HETATM   12  C   UNK N   1     -19.185  23.701 -16.497  0.00  0.00     0.065 A 
HETATM   13  C   UNK N   1     -18.144  22.827 -16.168  0.00  0.00     0.037 A 
HETATM   14  C   UNK N   1     -17.884  22.514 -14.831  0.00  0.00     0.014 A 
BRANCH  12  15
HETATM   15  O   UNK N   1     -19.433  23.987 -17.791  0.00  0.00    -0.361 OA
HETATM   16  H   UNK N   1     -19.748  24.861 -18.064  0.00  0.00     0.217 HD
ENDBRANCH  12  15
ENDBRANCH   8   9
ENDBRANCH   1   7
BRANCH   5  17
HETATM   17  O   UNK N   1     -18.581  21.883  -7.178  0.00  0.00    -0.361 OA
HETATM   18  H   UNK N   1     -19.531  22.059  -7.206  0.00  0.00     0.217 HD
ENDBRANCH   5  17
BRANCH   4  19
HETATM   19  O   UNK N   1     -15.242  18.938  -8.872  0.00  0.00    -0.361 OA
HETATM   20  H   UNK N   1     -14.330  19.211  -8.699  0.00  0.00     0.217 HD
ENDBRANCH   4  19
TORSDOF 5
ENDMDL
MODEL 2
REMARK VINA RESULT:      -6.9      0.140      2.016
REMARK  5 active torsions:
REMARK  status: ('A' for Active; 'I' for Inactive)
REMARK    1  A    between atoms: O_1  and  C_10 
REMARK    2  A    between atoms: O_2  and  C_11 
REMARK    3  A    between atoms: O_3  and  C_17 
REMARK    4  A    between atoms: C_4  and  C_6 
REMARK    5  A    between atoms: C_5  and  C_7 
ROOT
HETATM    1  C   UNK N   1     -17.501  21.050 -10.571  0.00  0.00    -0.031 A 
HETATM    2  C   UNK N   1     -16.517  20.092 -10.253  0.00  0.00     0.048 A 
HETATM    3  C   UNK N   1     -18.224  21.658  -9.532  0.00  0.00     0.048 A 
HETATM    4  C   UNK N   1     -17.959  21.333  -8.196  0.00  0.00     0.069 A 
HETATM    5  C   UNK N   1     -16.267  19.752  -8.922  0.00  0.00     0.069 A 
HETATM    6  C   UNK N   1     -16.984  20.377  -7.893  0.00  0.00     0.073 A 
ENDROOT
BRANCH   1   7
HETATM    7  C   UNK N   1     -17.822  21.428 -11.970  0.00  0.00     0.012 C 
HETATM    8  C   UNK N   1     -18.322  22.630 -12.322  0.00  0.00     0.012 C 
BRANCH   8   9
HETATM    9  C   UNK N   1     -18.626  22.999 -13.729  0.00  0.00    -0.036 A 
HETATM   10  C   UNK N   1     -19.652  23.908 -14.061  0.00  0.00     0.014 A 
HETATM   11  C   UNK N   1     -19.917  24.213 -15.396  0.00  0.00     0.037 A 
HETATM   12  C   UNK N   1     -19.158  23.630 -16.417  0.00  0.00     0.065 A 
HETATM   13  C   UNK N   1     -18.137  22.730 -16.096  0.00  0.00     0.037 A 
HETATM   14  C   UNK N   1     -17.878  22.409 -14.761  0.00  0.00     0.014 A 
BRANCH  12  15
HETATM   15  O   UNK N   1     -19.407  23.924 -17.710  0.00  0.00    -0.361 OA
HETATM   16  H   UNK N   1     -20.030  24.621 -17.958  0.00  0.00     0.217 HD
ENDBRANCH  12  15
ENDBRANCH   8   9
ENDBRANCH   1   7
BRANCH   5  17
HETATM   17  O   UNK N   1     -15.336  18.817  -8.641  0.00  0.00    -0.361 OA
HETATM   18  H   UNK N   1     -14.786  18.867  -7.847  0.00  0.00     0.217 HD
ENDBRANCH   5  17
BRANCH   4  19
HETATM   19  O   UNK N   1     -18.635  21.935  -7.197  0.00  0.00    -0.361 OA
HETATM   20  H   UNK N   1     -18.784  21.495  -6.347  0.00  0.00     0.217 HD
ENDBRANCH   4  19
TORSDOF 5
ENDMDL
MODEL 3
REMARK VINA RESULT:      -6.8      2.142      7.544
REMARK  5 active torsions:
REMARK  status: ('A' for Active; 'I' for Inactive)
REMARK    1  A    between atoms: O_1  and  C_10 
REMARK    2  A    between atoms: O_2  and  C_11 
REMARK    3  A    between atoms: O_3  and  C_17 
REMARK    4  A    between atoms: C_4  and  C_6 
REMARK    5  A    between atoms: C_5  and  C_7 
ROOT
HETATM    1  C   UNK N   1     -18.812  23.095 -11.628  0.00  0.00    -0.031 A 
HETATM    2  C   UNK N   1     -19.068  23.058 -13.013  0.00  0.00     0.048 A 
HETATM    3  C   UNK N   1     -19.288  24.179 -10.874  0.00  0.00     0.048 A 
HETATM    4  C   UNK N   1     -20.024  25.203 -11.484  0.00  0.00     0.069 A 
HETATM    5  C   UNK N   1     -19.783  24.089 -13.627  0.00  0.00     0.069 A 
HETATM    6  C   UNK N   1     -20.266  25.158 -12.861  0.00  0.00     0.073 A 
ENDROOT
BRANCH   1   7
HETATM    7  C   UNK N   1     -18.036  22.037 -10.933  0.00  0.00     0.012 C 
HETATM    8  C   UNK N   1     -17.935  21.946  -9.592  0.00  0.00     0.012 C 
BRANCH   8   9
HETATM    9  C   UNK N   1     -17.165  20.874  -8.909  0.00  0.00    -0.036 A 
HETATM   10  C   UNK N   1     -16.212  20.087  -9.587  0.00  0.00     0.014 A 
HETATM   11  C   UNK N   1     -15.524  19.077  -8.914  0.00  0.00     0.037 A 
HETATM   12  C   UNK N   1     -15.766  18.845  -7.555  0.00  0.00     0.065 A 
HETATM   13  C   UNK N   1     -16.708  19.623  -6.875  0.00  0.00     0.037 A 
HETATM   14  C   UNK N   1     -17.411  20.625  -7.549  0.00  0.00     0.014 A 
BRANCH  12  15
HETATM   15  O   UNK N   1     -15.102  17.873  -6.897  0.00  0.00    -0.361 OA
HETATM   16  H   UNK N   1     -14.870  17.963  -5.961  0.00  0.00     0.217 HD
ENDBRANCH  12  15
ENDBRANCH   8   9
ENDBRANCH   1   7
BRANCH   5  17
HETATM   17  O   UNK N   1     -19.998  24.045 -14.958  0.00  0.00    -0.361 OA
HETATM   18  H   UNK N   1     -19.334  24.347 -15.592  0.00  0.00     0.217 HD
ENDBRANCH   5  17
BRANCH   4  19
HETATM   19  O   UNK N   1     -20.501  26.231 -10.756  0.00  0.00    -0.361 OA
HETATM   20  H   UNK N   1     -21.394  26.581 -10.895  0.00  0.00     0.217 HD
ENDBRANCH   4  19
TORSDOF 5
ENDMDL
MODEL 4
REMARK VINA RESULT:      -6.6      1.478      7.517
REMARK  5 active torsions:
REMARK  status: ('A' for Active; 'I' for Inactive)
REMARK    1  A    between atoms: O_1  and  C_10 
REMARK    2  A    between atoms: O_2  and  C_11 
REMARK    3  A    between atoms: O_3  and  C_17 
REMARK    4  A    between atoms: C_4  and  C_6 
REMARK    5  A    between atoms: C_5  and  C_7 
ROOT
HETATM    1  C   UNK N   1     -18.580  22.782 -13.436  0.00  0.00    -0.031 A 
HETATM    2  C   UNK N   1     -17.754  22.697 -14.575  0.00  0.00     0.048 A 
HETATM    3  C   UNK N   1     -19.662  23.676 -13.441  0.00  0.00     0.048 A 
HETATM    4  C   UNK N   1     -19.932  24.461 -14.569  0.00  0.00     0.069 A 
HETATM    5  C   UNK N   1     -18.010  23.495 -15.693  0.00  0.00     0.069 A 
HETATM    6  C   UNK N   1     -19.103  24.373 -15.692  0.00  0.00     0.073 A 
ENDROOT
BRANCH   1   7
HETATM    7  C   UNK N   1     -18.336  21.975 -12.215  0.00  0.00     0.012 C 
HETATM    8  C   UNK N   1     -17.839  22.486 -11.069  0.00  0.00     0.012 C 
BRANCH   8   9
HETATM    9  C   UNK N   1     -17.612  21.668  -9.850  0.00  0.00    -0.036 A 
HETATM   10  C   UNK N   1     -18.303  21.910  -8.644  0.00  0.00     0.014 A 
HETATM   11  C   UNK N   1     -18.047  21.131  -7.516  0.00  0.00     0.037 A 
HETATM   12  C   UNK N   1     -17.109  20.092  -7.575  0.00  0.00     0.065 A 
HETATM   13  C   UNK N   1     -16.423  19.844  -8.767  0.00  0.00     0.037 A 
HETATM   14  C   UNK N   1     -16.665  20.632  -9.896  0.00  0.00     0.014 A 
BRANCH  12  15
HETATM   15  O   UNK N   1     -16.860  19.332  -6.489  0.00  0.00    -0.361 OA
HETATM   16  H   UNK N   1     -17.446  18.605  -6.236  0.00  0.00     0.217 HD
ENDBRANCH  12  15
ENDBRANCH   8   9
ENDBRANCH   1   7
BRANCH   5  17
HETATM   17  O   UNK N   1     -17.195  23.414 -16.765  0.00  0.00    -0.361 OA
HETATM   18  H   UNK N   1     -16.260  23.185 -16.678  0.00  0.00     0.217 HD
ENDBRANCH   5  17
BRANCH   4  19
HETATM   19  O   UNK N   1     -20.986  25.301 -14.583  0.00  0.00    -0.361 OA
HETATM   20  H   UNK N   1     -21.081  26.008 -13.927  0.00  0.00     0.217 HD
ENDBRANCH   4  19
TORSDOF 5
ENDMDL
MODEL 5
REMARK VINA RESULT:      -6.6     19.548     21.869
REMARK  5 active torsions:
REMARK  status: ('A' for Active; 'I' for Inactive)
REMARK    1  A    between atoms: O_1  and  C_10 
REMARK    2  A    between atoms: O_2  and  C_11 
REMARK    3  A    between atoms: O_3  and  C_17 
REMARK    4  A    between atoms: C_4  and  C_6 
REMARK    5  A    between atoms: C_5  and  C_7 
ROOT
HETATM    1  C   UNK N   1     -30.252  40.683  -8.757  0.00  0.00    -0.031 A 
HETATM    2  C   UNK N   1     -30.462  41.259  -7.488  0.00  0.00     0.048 A 
HETATM    3  C   UNK N   1     -30.127  41.521  -9.876  0.00  0.00     0.048 A 
HETATM    4  C   UNK N   1     -30.190  42.913  -9.734  0.00  0.00     0.069 A 
HETATM    5  C   UNK N   1     -30.546  42.647  -7.348  0.00  0.00     0.069 A 
HETATM    6  C   UNK N   1     -30.405  43.474  -8.470  0.00  0.00     0.073 A 
ENDROOT
BRANCH   1   7
HETATM    7  C   UNK N   1     -30.179  39.215  -8.962  0.00  0.00     0.012 C 
HETATM    8  C   UNK N   1     -30.250  38.627 -10.173  0.00  0.00     0.012 C 
BRANCH   8   9
HETATM    9  C   UNK N   1     -30.162  37.156 -10.365  0.00  0.00    -0.036 A 
HETATM   10  C   UNK N   1     -31.274  36.307 -10.180  0.00  0.00     0.014 A 
HETATM   11  C   UNK N   1     -31.144  34.929 -10.352  0.00  0.00     0.037 A 
HETATM   12  C   UNK N   1     -29.912  34.377 -10.722  0.00  0.00     0.065 A 
HETATM   13  C   UNK N   1     -28.807  35.212 -10.910  0.00  0.00     0.037 A 
HETATM   14  C   UNK N   1     -28.927  36.592 -10.724  0.00  0.00     0.014 A 
BRANCH  12  15
HETATM   15  O   UNK N   1     -29.781  33.046 -10.894  0.00  0.00    -0.361 OA
HETATM   16  H   UNK N   1     -29.306  32.498 -10.254  0.00  0.00     0.217 HD
ENDBRANCH  12  15
ENDBRANCH   8   9
ENDBRANCH   1   7
BRANCH   5  17
HETATM   17  O   UNK N   1     -30.769  43.177  -6.128  0.00  0.00    -0.361 OA
HETATM   18  H   UNK N   1     -30.282  42.881  -5.346  0.00  0.00     0.217 HD
ENDBRANCH   5  17
BRANCH   4  19
HETATM   19  O   UNK N   1     -30.046  43.719 -10.804  0.00  0.00    -0.361 OA
HETATM   20  H   UNK N   1     -29.283  43.645 -11.397  0.00  0.00     0.217 HD
ENDBRANCH   4  19
TORSDOF 5
ENDMDL
MODEL 6
REMARK VINA RESULT:      -6.5      1.945      3.290
REMARK  5 active torsions:
REMARK  status: ('A' for Active; 'I' for Inactive)
REMARK    1  A    between atoms: O_1  and  C_10 
REMARK    2  A    between atoms: O_2  and  C_11 
REMARK    3  A    between atoms: O_3  and  C_17 
REMARK    4  A    between atoms: C_4  and  C_6 
REMARK    5  A    between atoms: C_5  and  C_7 
ROOT
HETATM    1  C   UNK N   1     -17.687  21.705  -9.704  0.00  0.00    -0.031 A 
HETATM    2  C   UNK N   1     -16.661  20.762  -9.917  0.00  0.00     0.048 A 
HETATM    3  C   UNK N   1     -18.287  21.789  -8.438  0.00  0.00     0.048 A 
HETATM    4  C   UNK N   1     -17.860  20.962  -7.392  0.00  0.00     0.069 A 
HETATM    5  C   UNK N   1     -16.249  19.922  -8.880  0.00  0.00     0.069 A 
HETATM    6  C   UNK N   1     -16.844  20.026  -7.616  0.00  0.00     0.073 A 
ENDROOT
BRANCH   1   7
HETATM    7  C   UNK N   1     -18.177  22.603 -10.780  0.00  0.00     0.012 C 
HETATM    8  C   UNK N   1     -19.301  23.341 -10.680  0.00  0.00     0.012 C 
BRANCH   8   9
HETATM    9  C   UNK N   1     -19.773  24.247 -11.760  0.00  0.00    -0.036 A 
HETATM   10  C   UNK N   1     -19.738  23.874 -13.120  0.00  0.00     0.014 A 
HETATM   11  C   UNK N   1     -20.174  24.761 -14.104  0.00  0.00     0.037 A 
HETATM   12  C   UNK N   1     -20.661  26.025 -13.749  0.00  0.00     0.065 A 
HETATM   13  C   UNK N   1     -20.701  26.400 -12.403  0.00  0.00     0.037 A 
HETATM   14  C   UNK N   1     -20.251  25.521 -11.414  0.00  0.00     0.014 A 
BRANCH  12  15
HETATM   15  O   UNK N   1     -21.088  26.886 -14.696  0.00  0.00    -0.361 OA
HETATM   16  H   UNK N   1     -21.753  26.629 -15.349  0.00  0.00     0.217 HD
ENDBRANCH  12  15
ENDBRANCH   8   9
ENDBRANCH   1   7
BRANCH   5  17
HETATM   17  O   UNK N   1     -15.280  19.012  -9.110  0.00  0.00    -0.361 OA
HETATM   18  H   UNK N   1     -15.339  18.377  -9.836  0.00  0.00     0.217 HD
ENDBRANCH   5  17
BRANCH   4  19
HETATM   19  O   UNK N   1     -18.418  21.060  -6.169  0.00  0.00    -0.361 OA
HETATM   20  H   UNK N   1     -18.037  21.624  -5.480  0.00  0.00     0.217 HD
ENDBRANCH   4  19
TORSDOF 5
ENDMDL
MODEL 7
REMARK VINA RESULT:      -6.5      2.253      7.416
REMARK  5 active torsions:
REMARK  status: ('A' for Active; 'I' for Inactive)
REMARK    1  A    between atoms: O_1  and  C_10 
REMARK    2  A    between atoms: O_2  and  C_11 
REMARK    3  A    between atoms: O_3  and  C_17 
REMARK    4  A    between atoms: C_4  and  C_6 
REMARK    5  A    between atoms: C_5  and  C_7 
ROOT
HETATM    1  C   UNK N   1     -18.638  22.809 -11.144  0.00  0.00    -0.031 A 
HETATM    2  C   UNK N   1     -19.392  23.960 -10.841  0.00  0.00     0.048 A 
HETATM    3  C   UNK N   1     -18.405  22.478 -12.488  0.00  0.00     0.048 A 
HETATM    4  C   UNK N   1     -18.897  23.292 -13.517  0.00  0.00     0.069 A 
HETATM    5  C   UNK N   1     -19.902  24.760 -11.866  0.00  0.00     0.069 A 
HETATM    6  C   UNK N   1     -19.649  24.429 -13.204  0.00  0.00     0.073 A 
ENDROOT
BRANCH   1   7
HETATM    7  C   UNK N   1     -18.097  21.913 -10.092  0.00  0.00     0.012 C 
HETATM    8  C   UNK N   1     -17.071  21.060 -10.294  0.00  0.00     0.012 C 
BRANCH   8   9
HETATM    9  C   UNK N   1     -16.530  20.178  -9.227  0.00  0.00    -0.036 A 
HETATM   10  C   UNK N   1     -15.461  19.289  -9.460  0.00  0.00     0.014 A 
HETATM   11  C   UNK N   1     -14.995  18.464  -8.436  0.00  0.00     0.037 A 
HETATM   12  C   UNK N   1     -15.577  18.521  -7.164  0.00  0.00     0.065 A 
HETATM   13  C   UNK N   1     -16.636  19.403  -6.925  0.00  0.00     0.037 A 
HETATM   14  C   UNK N   1     -17.117  20.220  -7.952  0.00  0.00     0.014 A 
BRANCH  12  15
HETATM   15  O   UNK N   1     -15.128  17.730  -6.169  0.00  0.00    -0.361 OA
HETATM   16  H   UNK N   1     -14.271  17.885  -5.747  0.00  0.00     0.217 HD
ENDBRANCH  12  15
ENDBRANCH   8   9
ENDBRANCH   1   7
BRANCH   5  17
HETATM   17  O   UNK N   1     -20.639  25.846 -11.555  0.00  0.00    -0.361 OA
HETATM   18  H   UNK N   1     -21.284  26.219 -12.172  0.00  0.00     0.217 HD
ENDBRANCH   5  17
BRANCH   4  19
HETATM   19  O   UNK N   1     -18.652  22.989 -14.807  0.00  0.00    -0.361 OA
HETATM   20  H   UNK N   1     -18.209  23.613 -15.400  0.00  0.00     0.217 HD
ENDBRANCH   4  19
TORSDOF 5
ENDMDL
MODEL 8
REMARK VINA RESULT:      -6.5      1.200      1.487
REMARK  5 active torsions:
REMARK  status: ('A' for Active; 'I' for Inactive)
REMARK    1  A    between atoms: O_1  and  C_10 
REMARK    2  A    between atoms: O_2  and  C_11 
REMARK    3  A    between atoms: O_3  and  C_17 
REMARK    4  A    between atoms: C_4  and  C_6 
REMARK    5  A    between atoms: C_5  and  C_7 
ROOT
HETATM    1  C   UNK N   1     -18.095  21.958 -10.012  0.00  0.00    -0.031 A 
HETATM    2  C   UNK N   1     -18.490  21.935  -8.660  0.00  0.00     0.048 A 
HETATM    3  C   UNK N   1     -17.015  21.161 -10.423  0.00  0.00     0.048 A 
HETATM    4  C   UNK N   1     -16.349  20.338  -9.507  0.00  0.00     0.069 A 
HETATM    5  C   UNK N   1     -17.812  21.131  -7.740  0.00  0.00     0.069 A 
HETATM    6  C   UNK N   1     -16.745  20.328  -8.165  0.00  0.00     0.073 A 
ENDROOT
BRANCH   1   7
HETATM    7  C   UNK N   1     -18.767  22.813 -11.022  0.00  0.00     0.012 C 
HETATM    8  C   UNK N   1     -18.428  22.832 -12.328  0.00  0.00     0.012 C 
BRANCH   8   9
HETATM    9  C   UNK N   1     -19.118  23.684 -13.331  0.00  0.00    -0.036 A 
HETATM   10  C   UNK N   1     -20.002  24.717 -12.957  0.00  0.00     0.014 A 
HETATM   11  C   UNK N   1     -20.644  25.482 -13.931  0.00  0.00     0.037 A 
HETATM   12  C   UNK N   1     -20.407  25.238 -15.289  0.00  0.00     0.065 A 
HETATM   13  C   UNK N   1     -19.530  24.217 -15.667  0.00  0.00     0.037 A 
HETATM   14  C   UNK N   1     -18.897  23.437 -14.696  0.00  0.00     0.014 A 
BRANCH  12  15
HETATM   15  O   UNK N   1     -21.021  25.976 -16.235  0.00  0.00    -0.361 OA
HETATM   16  H   UNK N   1     -21.788  26.529 -16.027  0.00  0.00     0.217 HD
ENDBRANCH  12  15
ENDBRANCH   8   9
ENDBRANCH   1   7
BRANCH   5  17
HETATM   17  O   UNK N   1     -18.191  21.140  -6.446  0.00  0.00    -0.361 OA
HETATM   18  H   UNK N   1     -17.828  20.515  -5.803  0.00  0.00     0.217 HD
ENDBRANCH   5  17
BRANCH   4  19
HETATM   19  O   UNK N   1     -15.328  19.554  -9.906  0.00  0.00    -0.361 OA
HETATM   20  H   UNK N   1     -14.419  19.715  -9.613  0.00  0.00     0.217 HD
ENDBRANCH   4  19
TORSDOF 5
ENDMDL
MODEL 9
REMARK VINA RESULT:      -6.5      2.898      4.789
REMARK  5 active torsions:
REMARK  status: ('A' for Active; 'I' for Inactive)
REMARK    1  A    between atoms: O_1  and  C_10 
REMARK    2  A    between atoms: O_2  and  C_11 
REMARK    3  A    between atoms: O_3  and  C_17 
REMARK    4  A    between atoms: C_4  and  C_6 
REMARK    5  A    between atoms: C_5  and  C_7 
ROOT
HETATM    1  C   UNK N   1     -16.711  19.194  -6.856  0.00  0.00    -0.031 A 
HETATM    2  C   UNK N   1     -15.335  18.968  -6.652  0.00  0.00     0.048 A 
HETATM    3  C   UNK N   1     -17.642  18.522  -6.049  0.00  0.00     0.048 A 
HETATM    4  C   UNK N   1     -17.211  17.651  -5.039  0.00  0.00     0.069 A 
HETATM    5  C   UNK N   1     -14.905  18.084  -5.660  0.00  0.00     0.069 A 
HETATM    6  C   UNK N   1     -15.843  17.430  -4.850  0.00  0.00     0.073 A 
ENDROOT
BRANCH   1   7
HETATM    7  C   UNK N   1     -17.220  20.104  -7.913  0.00  0.00     0.012 C 
HETATM    8  C   UNK N   1     -16.805  20.063  -9.195  0.00  0.00     0.012 C 
BRANCH   8   9
HETATM    9  C   UNK N   1     -17.333  20.972 -10.246  0.00  0.00    -0.036 A 
HETATM   10  C   UNK N   1     -17.624  22.327  -9.988  0.00  0.00     0.014 A 
HETATM   11  C   UNK N   1     -18.136  23.142 -10.998  0.00  0.00     0.037 A 
HETATM   12  C   UNK N   1     -18.353  22.623 -12.281  0.00  0.00     0.065 A 
HETATM   13  C   UNK N   1     -18.064  21.281 -12.544  0.00  0.00     0.037 A 
HETATM   14  C   UNK N   1     -17.566  20.457 -11.532  0.00  0.00     0.014 A 
BRANCH  12  15
HETATM   15  O   UNK N   1     -18.844  23.407 -13.262  0.00  0.00    -0.361 OA
HETATM   16  H   UNK N   1     -18.390  24.217 -13.537  0.00  0.00     0.217 HD
ENDBRANCH  12  15
ENDBRANCH   8   9
ENDBRANCH   1   7
BRANCH   5  17
HETATM   17  O   UNK N   1     -13.584  17.865  -5.495  0.00  0.00    -0.361 OA
HETATM   18  H   UNK N   1     -13.249  17.063  -5.072  0.00  0.00     0.217 HD
ENDBRANCH   5  17
BRANCH   4  19
HETATM   19  O   UNK N   1     -18.104  17.025  -4.248  0.00  0.00    -0.361 OA
HETATM   20  H   UNK N   1     -17.893  16.788  -3.333  0.00  0.00     0.217 HD
ENDBRANCH   4  19
TORSDOF 5
ENDMDL
