MODEL 1
REMARK VINA RESULT:      -7.5      0.000      0.000
REMARK  5 active torsions:
REMARK  status: ('A' for Active; 'I' for Inactive)
REMARK    1  A    between atoms: O_2  and  C_11 
REMARK    2  A    between atoms: O_3  and  C_13 
REMARK    3  A    between atoms: O_5  and  C_15 
REMARK    4  A    between atoms: O_6  and  C_21 
REMARK    5  A    between atoms: C_9  and  C_12 
ROOT
HETATM    1  O   UNK N   1     -17.756  20.324  -8.272  0.00  0.00    -0.306 OA
HETATM    2  O   UNK N   1     -14.320  18.345  -8.369  0.00  0.00    -0.284 OA
HETATM    3  C   UNK N   1     -16.196  18.903  -7.148  0.00  0.00     0.084 A 
HETATM    4  C   UNK N   1     -17.413  19.639  -7.189  0.00  0.00     0.096 A 
HETATM    5  C   UNK N   1     -17.006  20.372  -9.364  0.00  0.00     0.123 A 
HETATM    6  C   UNK N   1     -15.378  18.940  -8.310  0.00  0.00     0.223 A 
HETATM    7  C   UNK N   1     -15.788  19.680  -9.421  0.00  0.00     0.152 A 
HETATM    8  C   UNK N   1     -15.879  18.181  -5.951  0.00  0.00     0.085 A 
HETATM    9  C   UNK N   1     -18.274  19.656  -6.090  0.00  0.00     0.075 A 
HETATM   10  C   UNK N   1     -17.955  18.951  -4.933  0.00  0.00     0.071 A 
HETATM   11  C   UNK N   1     -16.766  18.222  -4.868  0.00  0.00     0.074 A 
ENDROOT
BRANCH   5  12
HETATM   12  C   UNK N   1     -17.486  21.154 -10.502  0.00  0.00     0.001 A 
HETATM   13  C   UNK N   1     -17.718  20.526 -11.730  0.00  0.00     0.017 A 
HETATM   14  C   UNK N   1     -18.192  21.266 -12.813  0.00  0.00     0.037 A 
HETATM   15  C   UNK N   1     -18.437  22.641 -12.672  0.00  0.00     0.065 A 
HETATM   16  C   UNK N   1     -18.196  23.269 -11.443  0.00  0.00     0.037 A 
HETATM   17  C   UNK N   1     -17.723  22.527 -10.358  0.00  0.00     0.017 A 
BRANCH  15  18
HETATM   18  O   UNK N   1     -18.904  23.362 -13.709  0.00  0.00    -0.361 OA
HETATM   19  H   UNK N   1     -19.842  23.588 -13.785  0.00  0.00     0.217 HD
ENDBRANCH  15  18
ENDBRANCH   5  12
BRANCH   7  20
HETATM   20  O   UNK N   1     -15.005  19.714 -10.525  0.00  0.00    -0.355 OA
HETATM   21  H   UNK N   1     -14.991  19.006 -11.184  0.00  0.00     0.218 HD
ENDBRANCH   7  20
BRANCH   8  22
HETATM   22  O   UNK N   1     -14.756  17.443  -5.786  0.00  0.00    -0.360 OA
HETATM   23  H   UNK N   1     -14.070  17.581  -5.129  0.00  0.00     0.217 HD
ENDBRANCH   8  22
BRANCH  10  24
HETATM   24  O   UNK N   1     -18.797  18.980  -3.880  0.00  0.00    -0.361 OA
HETATM   25  H   UNK N   1     -18.524  19.337  -3.023  0.00  0.00     0.217 HD
ENDBRANCH  10  24
TORSDOF 5
ENDMDL
MODEL 2
REMARK VINA RESULT:      -7.2      3.279      9.483
REMARK  5 active torsions:
REMARK  status: ('A' for Active; 'I' for Inactive)
REMARK    1  A    between atoms: O_2  and  C_11 
REMARK    2  A    between atoms: O_3  and  C_13 
REMARK    3  A    between atoms: O_5  and  C_15 
REMARK    4  A    between atoms: O_6  and  C_21 
REMARK    5  A    between atoms: C_9  and  C_12 
ROOT
HETATM    1  O   UNK N   1     -17.876  23.339 -14.411  0.00  0.00    -0.306 OA
HETATM    2  O   UNK N   1     -21.471  25.009 -14.260  0.00  0.00    -0.284 OA
HETATM    3  C   UNK N   1     -19.516  24.732 -15.454  0.00  0.00     0.084 A 
HETATM    4  C   UNK N   1     -18.242  24.100 -15.434  0.00  0.00     0.096 A 
HETATM    5  C   UNK N   1     -18.654  23.122 -13.359  0.00  0.00     0.123 A 
HETATM    6  C   UNK N   1     -20.365  24.511 -14.336  0.00  0.00     0.223 A 
HETATM    7  C   UNK N   1     -19.928  23.701 -13.285  0.00  0.00     0.152 A 
HETATM    8  C   UNK N   1     -19.856  25.542 -16.587  0.00  0.00     0.085 A 
HETATM    9  C   UNK N   1     -17.346  24.267 -16.494  0.00  0.00     0.075 A 
HETATM   10  C   UNK N   1     -17.687  25.057 -17.588  0.00  0.00     0.071 A 
HETATM   11  C   UNK N   1     -18.932  25.687 -17.630  0.00  0.00     0.074 A 
ENDROOT
BRANCH   5  12
HETATM   12  C   UNK N   1     -18.151  22.260 -12.292  0.00  0.00     0.001 A 
HETATM   13  C   UNK N   1     -17.938  20.899 -12.537  0.00  0.00     0.017 A 
HETATM   14  C   UNK N   1     -17.442  20.077 -11.525  0.00  0.00     0.037 A 
HETATM   15  C   UNK N   1     -17.157  20.614 -10.260  0.00  0.00     0.065 A 
HETATM   16  C   UNK N   1     -17.378  21.975 -10.015  0.00  0.00     0.037 A 
HETATM   17  C   UNK N   1     -17.873  22.798 -11.029  0.00  0.00     0.017 A 
BRANCH  15  18
HETATM   18  O   UNK N   1     -16.669  19.830  -9.279  0.00  0.00    -0.361 OA
HETATM   19  H   UNK N   1     -16.883  18.887  -9.233  0.00  0.00     0.217 HD
ENDBRANCH  15  18
ENDBRANCH   5  12
BRANCH   7  20
HETATM   20  O   UNK N   1     -20.740  23.494 -12.221  0.00  0.00    -0.355 OA
HETATM   21  H   UNK N   1     -21.651  23.818 -12.182  0.00  0.00     0.218 HD
ENDBRANCH   7  20
BRANCH   8  22
HETATM   22  O   UNK N   1     -21.034  26.194 -16.727  0.00  0.00    -0.360 OA
HETATM   23  H   UNK N   1     -21.651  26.112 -17.457  0.00  0.00     0.217 HD
ENDBRANCH   8  22
BRANCH  10  24
HETATM   24  O   UNK N   1     -16.810  25.208 -18.600  0.00  0.00    -0.361 OA
HETATM   25  H   UNK N   1     -17.102  25.440 -19.494  0.00  0.00     0.217 HD
ENDBRANCH  10  24
TORSDOF 5
ENDMDL
MODEL 3
REMARK VINA RESULT:      -7.1      1.706      6.796
REMARK  5 active torsions:
REMARK  status: ('A' for Active; 'I' for Inactive)
REMARK    1  A    between atoms: O_2  and  C_11 
REMARK    2  A    between atoms: O_3  and  C_13 
REMARK    3  A    between atoms: O_5  and  C_15 
REMARK    4  A    between atoms: O_6  and  C_21 
REMARK    5  A    between atoms: C_9  and  C_12 
ROOT
HETATM    1  O   UNK N   1     -18.029  22.017 -10.001  0.00  0.00    -0.306 OA
HETATM    2  O   UNK N   1     -17.742  21.118 -13.854  0.00  0.00    -0.284 OA
HETATM    3  C   UNK N   1     -18.561  22.576 -12.264  0.00  0.00     0.084 A 
HETATM    4  C   UNK N   1     -18.620  22.831 -10.866  0.00  0.00     0.096 A 
HETATM    5  C   UNK N   1     -17.359  20.934 -10.370  0.00  0.00     0.123 A 
HETATM    6  C   UNK N   1     -17.847  21.420 -12.680  0.00  0.00     0.223 A 
HETATM    7  C   UNK N   1     -17.244  20.597 -11.726  0.00  0.00     0.152 A 
HETATM    8  C   UNK N   1     -19.218  23.491 -13.150  0.00  0.00     0.085 A 
HETATM    9  C   UNK N   1     -19.302  23.945 -10.372  0.00  0.00     0.075 A 
HETATM   10  C   UNK N   1     -19.937  24.826 -11.242  0.00  0.00     0.071 A 
HETATM   11  C   UNK N   1     -19.893  24.597 -12.619  0.00  0.00     0.074 A 
ENDROOT
BRANCH   5  12
HETATM   12  C   UNK N   1     -16.742  20.112  -9.332  0.00  0.00     0.001 A 
HETATM   13  C   UNK N   1     -15.563  19.412  -9.607  0.00  0.00     0.017 A 
HETATM   14  C   UNK N   1     -14.962  18.639  -8.613  0.00  0.00     0.037 A 
HETATM   15  C   UNK N   1     -15.539  18.565  -7.336  0.00  0.00     0.065 A 
HETATM   16  C   UNK N   1     -16.723  19.261  -7.065  0.00  0.00     0.037 A 
HETATM   17  C   UNK N   1     -17.324  20.036  -8.060  0.00  0.00     0.017 A 
BRANCH  15  18
HETATM   18  O   UNK N   1     -14.960  17.830  -6.366  0.00  0.00    -0.361 OA
HETATM   19  H   UNK N   1     -14.589  18.243  -5.573  0.00  0.00     0.217 HD
ENDBRANCH  15  18
ENDBRANCH   5  12
BRANCH   7  20
HETATM   20  O   UNK N   1     -16.567  19.496 -12.128  0.00  0.00    -0.355 OA
HETATM   21  H   UNK N   1     -16.934  18.602 -12.076  0.00  0.00     0.218 HD
ENDBRANCH   7  20
BRANCH   8  22
HETATM   22  O   UNK N   1     -19.234  23.362 -14.498  0.00  0.00    -0.360 OA
HETATM   23  H   UNK N   1     -19.559  22.610 -14.998  0.00  0.00     0.217 HD
ENDBRANCH   8  22
BRANCH  10  24
HETATM   24  O   UNK N   1     -20.593  25.895 -10.747  0.00  0.00    -0.361 OA
HETATM   25  H   UNK N   1     -20.971  25.890  -9.856  0.00  0.00     0.217 HD
ENDBRANCH  10  24
TORSDOF 5
ENDMDL
MODEL 4
REMARK VINA RESULT:      -7.1      1.960      4.262
REMARK  5 active torsions:
REMARK  status: ('A' for Active; 'I' for Inactive)
REMARK    1  A    between atoms: O_2  and  C_11 
REMARK    2  A    between atoms: O_3  and  C_13 
REMARK    3  A    between atoms: O_5  and  C_15 
REMARK    4  A    between atoms: O_6  and  C_21 
REMARK    5  A    between atoms: C_9  and  C_12 
ROOT
HETATM    1  O   UNK N   1     -17.229  21.094 -11.412  0.00  0.00    -0.306 OA
HETATM    2  O   UNK N   1     -19.454  22.635  -8.513  0.00  0.00    -0.284 OA
HETATM    3  C   UNK N   1     -17.743  21.194  -9.080  0.00  0.00     0.084 A 
HETATM    4  C   UNK N   1     -16.988  20.687 -10.173  0.00  0.00     0.096 A 
HETATM    5  C   UNK N   1     -18.169  21.979 -11.712  0.00  0.00     0.123 A 
HETATM    6  C   UNK N   1     -18.755  22.146  -9.379  0.00  0.00     0.223 A 
HETATM    7  C   UNK N   1     -18.966  22.538 -10.703  0.00  0.00     0.152 A 
HETATM    8  C   UNK N   1     -17.437  20.718  -7.763  0.00  0.00     0.085 A 
HETATM    9  C   UNK N   1     -15.975  19.747  -9.965  0.00  0.00     0.075 A 
HETATM   10  C   UNK N   1     -15.688  19.292  -8.682  0.00  0.00     0.071 A 
HETATM   11  C   UNK N   1     -16.415  19.775  -7.593  0.00  0.00     0.074 A 
ENDROOT
BRANCH   5  12
HETATM   12  C   UNK N   1     -18.342  22.360 -13.111  0.00  0.00     0.001 A 
HETATM   13  C   UNK N   1     -19.157  23.449 -13.441  0.00  0.00     0.017 A 
HETATM   14  C   UNK N   1     -19.311  23.825 -14.776  0.00  0.00     0.037 A 
HETATM   15  C   UNK N   1     -18.650  23.113 -15.788  0.00  0.00     0.065 A 
HETATM   16  C   UNK N   1     -17.841  22.019 -15.456  0.00  0.00     0.037 A 
HETATM   17  C   UNK N   1     -17.685  21.643 -14.119  0.00  0.00     0.017 A 
BRANCH  15  18
HETATM   18  O   UNK N   1     -18.785  23.475 -17.078  0.00  0.00    -0.361 OA
HETATM   19  H   UNK N   1     -18.499  24.346 -17.391  0.00  0.00     0.217 HD
ENDBRANCH  15  18
ENDBRANCH   5  12
BRANCH   7  20
HETATM   20  O   UNK N   1     -19.933  23.443 -10.984  0.00  0.00    -0.355 OA
HETATM   21  H   UNK N   1     -20.772  23.485 -10.503  0.00  0.00     0.218 HD
ENDBRANCH   7  20
BRANCH   8  22
HETATM   22  O   UNK N   1     -18.080  21.123  -6.642  0.00  0.00    -0.360 OA
HETATM   23  H   UNK N   1     -19.028  21.140  -6.499  0.00  0.00     0.217 HD
ENDBRANCH   8  22
BRANCH  10  24
HETATM   24  O   UNK N   1     -14.708  18.383  -8.501  0.00  0.00    -0.361 OA
HETATM   25  H   UNK N   1     -14.601  17.627  -9.096  0.00  0.00     0.217 HD
ENDBRANCH  10  24
TORSDOF 5
ENDMDL
MODEL 5
REMARK VINA RESULT:      -7.0      1.821      6.746
REMARK  5 active torsions:
REMARK  status: ('A' for Active; 'I' for Inactive)
REMARK    1  A    between atoms: O_2  and  C_11 
REMARK    2  A    between atoms: O_3  and  C_13 
REMARK    3  A    between atoms: O_5  and  C_15 
REMARK    4  A    between atoms: O_6  and  C_21 
REMARK    5  A    between atoms: C_9  and  C_12 
ROOT
HETATM    1  O   UNK N   1     -17.552  20.209  -6.529  0.00  0.00    -0.306 OA
HETATM    2  O   UNK N   1     -14.707  18.327  -8.553  0.00  0.00    -0.284 OA
HETATM    3  C   UNK N   1     -16.351  19.947  -8.579  0.00  0.00     0.084 A 
HETATM    4  C   UNK N   1     -17.353  20.574  -7.788  0.00  0.00     0.096 A 
HETATM    5  C   UNK N   1     -16.849  19.256  -5.933  0.00  0.00     0.123 A 
HETATM    6  C   UNK N   1     -15.585  18.923  -7.959  0.00  0.00     0.223 A 
HETATM    7  C   UNK N   1     -15.838  18.578  -6.629  0.00  0.00     0.152 A 
HETATM    8  C   UNK N   1     -16.181  20.384  -9.934  0.00  0.00     0.085 A 
HETATM    9  C   UNK N   1     -18.151  21.589  -8.322  0.00  0.00     0.075 A 
HETATM   10  C   UNK N   1     -17.977  22.004  -9.638  0.00  0.00     0.071 A 
HETATM   11  C   UNK N   1     -17.000  21.404 -10.434  0.00  0.00     0.074 A 
ENDROOT
BRANCH   5  12
HETATM   12  C   UNK N   1     -17.149  18.940  -4.539  0.00  0.00     0.001 A 
HETATM   13  C   UNK N   1     -18.027  17.894  -4.235  0.00  0.00     0.017 A 
HETATM   14  C   UNK N   1     -18.303  17.580  -2.904  0.00  0.00     0.037 A 
HETATM   15  C   UNK N   1     -17.700  18.312  -1.869  0.00  0.00     0.065 A 
HETATM   16  C   UNK N   1     -16.828  19.364  -2.176  0.00  0.00     0.037 A 
HETATM   17  C   UNK N   1     -16.551  19.677  -3.509  0.00  0.00     0.017 A 
BRANCH  15  18
HETATM   18  O   UNK N   1     -17.953  18.010  -0.581  0.00  0.00    -0.361 OA
HETATM   19  H   UNK N   1     -17.240  17.782   0.034  0.00  0.00     0.217 HD
ENDBRANCH  15  18
ENDBRANCH   5  12
BRANCH   7  20
HETATM   20  O   UNK N   1     -15.107  17.601  -6.043  0.00  0.00    -0.355 OA
HETATM   21  H   UNK N   1     -14.298  17.241  -6.434  0.00  0.00     0.218 HD
ENDBRANCH   7  20
BRANCH   8  22
HETATM   22  O   UNK N   1     -15.264  19.870 -10.787  0.00  0.00    -0.360 OA
HETATM   23  H   UNK N   1     -14.855  19.003 -10.735  0.00  0.00     0.217 HD
ENDBRANCH   8  22
BRANCH  10  24
HETATM   24  O   UNK N   1     -18.758  22.984 -10.137  0.00  0.00    -0.361 OA
HETATM   25  H   UNK N   1     -18.475  23.524 -10.890  0.00  0.00     0.217 HD
ENDBRANCH  10  24
TORSDOF 5
ENDMDL
MODEL 6
REMARK VINA RESULT:      -6.9      2.394      8.307
REMARK  5 active torsions:
REMARK  status: ('A' for Active; 'I' for Inactive)
REMARK    1  A    between atoms: O_2  and  C_11 
REMARK    2  A    between atoms: O_3  and  C_13 
REMARK    3  A    between atoms: O_5  and  C_15 
REMARK    4  A    between atoms: O_6  and  C_21 
REMARK    5  A    between atoms: C_9  and  C_12 
ROOT
HETATM    1  O   UNK N   1     -17.932  22.464 -12.533  0.00  0.00    -0.306 OA
HETATM    2  O   UNK N   1     -21.508  24.173 -12.358  0.00  0.00    -0.284 OA
HETATM    3  C   UNK N   1     -19.637  23.728 -13.634  0.00  0.00     0.084 A 
HETATM    4  C   UNK N   1     -18.365  23.092 -13.619  0.00  0.00     0.096 A 
HETATM    5  C   UNK N   1     -18.637  22.389 -11.413  0.00  0.00     0.123 A 
HETATM    6  C   UNK N   1     -20.409  23.658 -12.443  0.00  0.00     0.223 A 
HETATM    7  C   UNK N   1     -19.904  22.985 -11.329  0.00  0.00     0.152 A 
HETATM    8  C   UNK N   1     -20.052  24.390 -14.836  0.00  0.00     0.085 A 
HETATM    9  C   UNK N   1     -17.543  23.114 -14.748  0.00  0.00     0.075 A 
HETATM   10  C   UNK N   1     -17.956  23.760 -15.908  0.00  0.00     0.071 A 
HETATM   11  C   UNK N   1     -19.200  24.392 -15.948  0.00  0.00     0.074 A 
ENDROOT
BRANCH   5  12
HETATM   12  C   UNK N   1     -18.065  21.666 -10.280  0.00  0.00     0.001 A 
HETATM   13  C   UNK N   1     -17.161  20.623 -10.504  0.00  0.00     0.017 A 
HETATM   14  C   UNK N   1     -16.600  19.941  -9.424  0.00  0.00     0.037 A 
HETATM   15  C   UNK N   1     -16.941  20.302  -8.111  0.00  0.00     0.065 A 
HETATM   16  C   UNK N   1     -17.852  21.342  -7.889  0.00  0.00     0.037 A 
HETATM   17  C   UNK N   1     -18.413  22.025  -8.971  0.00  0.00     0.017 A 
BRANCH  15  18
HETATM   18  O   UNK N   1     -16.397  19.656  -7.062  0.00  0.00    -0.361 OA
HETATM   19  H   UNK N   1     -16.919  19.050  -6.516  0.00  0.00     0.217 HD
ENDBRANCH  15  18
ENDBRANCH   5  12
BRANCH   7  20
HETATM   20  O   UNK N   1     -20.642  22.923 -10.196  0.00  0.00    -0.355 OA
HETATM   21  H   UNK N   1     -20.752  23.675  -9.596  0.00  0.00     0.218 HD
ENDBRANCH   7  20
BRANCH   8  22
HETATM   22  O   UNK N   1     -21.237  25.029 -14.979  0.00  0.00    -0.360 OA
HETATM   23  H   UNK N   1     -21.659  25.605 -14.338  0.00  0.00     0.217 HD
ENDBRANCH   8  22
BRANCH  10  24
HETATM   24  O   UNK N   1     -17.148  23.773 -16.988  0.00  0.00    -0.361 OA
HETATM   25  H   UNK N   1     -17.183  24.490 -17.639  0.00  0.00     0.217 HD
ENDBRANCH  10  24
TORSDOF 5
ENDMDL
MODEL 7
REMARK VINA RESULT:      -6.9      1.636      7.203
REMARK  5 active torsions:
REMARK  status: ('A' for Active; 'I' for Inactive)
REMARK    1  A    between atoms: O_2  and  C_11 
REMARK    2  A    between atoms: O_3  and  C_13 
REMARK    3  A    between atoms: O_5  and  C_15 
REMARK    4  A    between atoms: O_6  and  C_21 
REMARK    5  A    between atoms: C_9  and  C_12 
ROOT
HETATM    1  O   UNK N   1     -17.085  20.521 -10.967  0.00  0.00    -0.306 OA
HETATM    2  O   UNK N   1     -19.155  23.768 -10.013  0.00  0.00    -0.284 OA
HETATM    3  C   UNK N   1     -18.297  22.447 -11.699  0.00  0.00     0.084 A 
HETATM    4  C   UNK N   1     -17.546  21.268 -11.962  0.00  0.00     0.096 A 
HETATM    5  C   UNK N   1     -17.286  20.815  -9.690  0.00  0.00     0.123 A 
HETATM    6  C   UNK N   1     -18.525  22.779 -10.337  0.00  0.00     0.223 A 
HETATM    7  C   UNK N   1     -18.016  21.956  -9.329  0.00  0.00     0.152 A 
HETATM    8  C   UNK N   1     -18.770  23.214 -12.815  0.00  0.00     0.085 A 
HETATM    9  C   UNK N   1     -17.276  20.871 -13.273  0.00  0.00     0.075 A 
HETATM   10  C   UNK N   1     -17.739  21.624 -14.348  0.00  0.00     0.071 A 
HETATM   11  C   UNK N   1     -18.479  22.785 -14.116  0.00  0.00     0.074 A 
ENDROOT
BRANCH   5  12
HETATM   12  C   UNK N   1     -16.738  19.916  -8.677  0.00  0.00     0.001 A 
HETATM   13  C   UNK N   1     -15.539  19.239  -8.922  0.00  0.00     0.017 A 
HETATM   14  C   UNK N   1     -15.005  18.393  -7.950  0.00  0.00     0.037 A 
HETATM   15  C   UNK N   1     -15.669  18.221  -6.725  0.00  0.00     0.065 A 
HETATM   16  C   UNK N   1     -16.872  18.895  -6.485  0.00  0.00     0.037 A 
HETATM   17  C   UNK N   1     -17.407  19.743  -7.458  0.00  0.00     0.017 A 
BRANCH  15  18
HETATM   18  O   UNK N   1     -15.155  17.414  -5.776  0.00  0.00    -0.361 OA
HETATM   19  H   UNK N   1     -14.207  17.408  -5.578  0.00  0.00     0.217 HD
ENDBRANCH  15  18
ENDBRANCH   5  12
BRANCH   7  20
HETATM   20  O   UNK N   1     -18.234  22.278  -8.032  0.00  0.00    -0.355 OA
HETATM   21  H   UNK N   1     -19.002  22.788  -7.738  0.00  0.00     0.218 HD
ENDBRANCH   7  20
BRANCH   8  22
HETATM   22  O   UNK N   1     -19.496  24.351 -12.700  0.00  0.00    -0.360 OA
HETATM   23  H   UNK N   1     -19.512  25.086 -13.317  0.00  0.00     0.217 HD
ENDBRANCH   8  22
BRANCH  10  24
HETATM   24  O   UNK N   1     -17.467  21.227 -15.607  0.00  0.00    -0.361 OA
HETATM   25  H   UNK N   1     -16.659  21.504 -16.063  0.00  0.00     0.217 HD
ENDBRANCH  10  24
TORSDOF 5
ENDMDL
MODEL 8
REMARK VINA RESULT:      -6.9      2.360      4.442
REMARK  5 active torsions:
REMARK  status: ('A' for Active; 'I' for Inactive)
REMARK    1  A    between atoms: O_2  and  C_11 
REMARK    2  A    between atoms: O_3  and  C_13 
REMARK    3  A    between atoms: O_5  and  C_15 
REMARK    4  A    between atoms: O_6  and  C_21 
REMARK    5  A    between atoms: C_9  and  C_12 
ROOT
HETATM    1  O   UNK N   1     -15.110  18.725  -6.101  0.00  0.00    -0.306 OA
HETATM    2  O   UNK N   1     -17.859  16.687  -4.095  0.00  0.00    -0.284 OA
HETATM    3  C   UNK N   1     -15.629  17.241  -4.299  0.00  0.00     0.084 A 
HETATM    4  C   UNK N   1     -14.702  17.998  -5.068  0.00  0.00     0.096 A 
HETATM    5  C   UNK N   1     -16.378  18.792  -6.480  0.00  0.00     0.123 A 
HETATM    6  C   UNK N   1     -16.994  17.301  -4.689  0.00  0.00     0.223 A 
HETATM    7  C   UNK N   1     -17.367  18.082  -5.785  0.00  0.00     0.152 A 
HETATM    8  C   UNK N   1     -15.129  16.476  -3.195  0.00  0.00     0.085 A 
HETATM    9  C   UNK N   1     -13.341  17.994  -4.753  0.00  0.00     0.075 A 
HETATM   10  C   UNK N   1     -12.869  17.246  -3.679  0.00  0.00     0.071 A 
HETATM   11  C   UNK N   1     -13.759  16.495  -2.909  0.00  0.00     0.074 A 
ENDROOT
BRANCH   5  12
HETATM   12  C   UNK N   1     -16.715  19.630  -7.629  0.00  0.00     0.001 A 
HETATM   13  C   UNK N   1     -17.532  20.753  -7.457  0.00  0.00     0.017 A 
HETATM   14  C   UNK N   1     -17.842  21.564  -8.549  0.00  0.00     0.037 A 
HETATM   15  C   UNK N   1     -17.335  21.255  -9.820  0.00  0.00     0.065 A 
HETATM   16  C   UNK N   1     -16.524  20.126  -9.991  0.00  0.00     0.037 A 
HETATM   17  C   UNK N   1     -16.212  19.315  -8.898  0.00  0.00     0.017 A 
BRANCH  15  18
HETATM   18  O   UNK N   1     -17.620  22.038 -10.879  0.00  0.00    -0.361 OA
HETATM   19  H   UNK N   1     -17.223  22.915 -10.980  0.00  0.00     0.217 HD
ENDBRANCH  15  18
ENDBRANCH   5  12
BRANCH   7  20
HETATM   20  O   UNK N   1     -18.669  18.134  -6.154  0.00  0.00    -0.355 OA
HETATM   21  H   UNK N   1     -18.955  18.376  -7.046  0.00  0.00     0.218 HD
ENDBRANCH   7  20
BRANCH   8  22
HETATM   22  O   UNK N   1     -15.906  15.717  -2.386  0.00  0.00    -0.360 OA
HETATM   23  H   UNK N   1     -16.562  15.072  -2.661  0.00  0.00     0.217 HD
ENDBRANCH   8  22
BRANCH  10  24
HETATM   24  O   UNK N   1     -11.552  17.252  -3.391  0.00  0.00    -0.361 OA
HETATM   25  H   UNK N   1     -10.982  17.996  -3.636  0.00  0.00     0.217 HD
ENDBRANCH  10  24
TORSDOF 5
ENDMDL
MODEL 9
REMARK VINA RESULT:      -6.6      2.351      3.519
REMARK  5 active torsions:
REMARK  status: ('A' for Active; 'I' for Inactive)
REMARK    1  A    between atoms: O_2  and  C_11 
REMARK    2  A    between atoms: O_3  and  C_13 
REMARK    3  A    between atoms: O_5  and  C_15 
REMARK    4  A    between atoms: O_6  and  C_21 
REMARK    5  A    between atoms: C_9  and  C_12 
ROOT
HETATM    1  O   UNK N   1     -18.961  22.225  -9.015  0.00  0.00    -0.306 OA
HETATM    2  O   UNK N   1     -16.412  20.262 -11.336  0.00  0.00    -0.284 OA
HETATM    3  C   UNK N   1     -17.179  20.641  -9.193  0.00  0.00     0.084 A 
HETATM    4  C   UNK N   1     -18.121  21.382  -8.427  0.00  0.00     0.096 A 
HETATM    5  C   UNK N   1     -18.978  22.432 -10.324  0.00  0.00     0.123 A 
HETATM    6  C   UNK N   1     -17.182  20.848 -10.598  0.00  0.00     0.223 A 
HETATM    7  C   UNK N   1     -18.088  21.748 -11.164  0.00  0.00     0.152 A 
HETATM    8  C   UNK N   1     -16.298  19.745  -8.502  0.00  0.00     0.085 A 
HETATM    9  C   UNK N   1     -18.184  21.239  -7.039  0.00  0.00     0.075 A 
HETATM   10  C   UNK N   1     -17.323  20.367  -6.381  0.00  0.00     0.071 A 
HETATM   11  C   UNK N   1     -16.389  19.628  -7.110  0.00  0.00     0.074 A 
ENDROOT
BRANCH   5  12
HETATM   12  C   UNK N   1     -19.951  23.378 -10.864  0.00  0.00     0.001 A 
HETATM   13  C   UNK N   1     -19.585  24.713 -11.068  0.00  0.00     0.017 A 
HETATM   14  C   UNK N   1     -20.507  25.616 -11.599  0.00  0.00     0.037 A 
HETATM   15  C   UNK N   1     -21.801  25.186 -11.930  0.00  0.00     0.065 A 
HETATM   16  C   UNK N   1     -22.167  23.851 -11.718  0.00  0.00     0.037 A 
HETATM   17  C   UNK N   1     -21.244  22.947 -11.188  0.00  0.00     0.017 A 
BRANCH  15  18
HETATM   18  O   UNK N   1     -22.695  26.048 -12.453  0.00  0.00    -0.361 OA
HETATM   19  H   UNK N   1     -22.652  26.997 -12.262  0.00  0.00     0.217 HD
ENDBRANCH  15  18
ENDBRANCH   5  12
BRANCH   7  20
HETATM   20  O   UNK N   1     -18.085  21.943 -12.504  0.00  0.00    -0.355 OA
HETATM   21  H   UNK N   1     -17.893  21.239 -13.138  0.00  0.00     0.218 HD
ENDBRANCH   7  20
BRANCH   8  22
HETATM   22  O   UNK N   1     -15.360  18.983  -9.114  0.00  0.00    -0.360 OA
HETATM   23  H   UNK N   1     -15.184  18.938 -10.056  0.00  0.00     0.217 HD
ENDBRANCH   8  22
BRANCH  10  24
HETATM   24  O   UNK N   1     -17.397  20.243  -5.040  0.00  0.00    -0.361 OA
HETATM   25  H   UNK N   1     -16.601  20.155  -4.495  0.00  0.00     0.217 HD
ENDBRANCH  10  24
TORSDOF 5
ENDMDL
