MODEL 1
REMARK VINA RESULT:      -7.7      0.000      0.000
REMARK  4 active torsions:
REMARK  status: ('A' for Active; 'I' for Inactive)
REMARK    1  A    between atoms: O_2  and  C_12 
REMARK    2  A    between atoms: O_4  and  C_14 
REMARK    3  A    between atoms: O_5  and  C_20 
REMARK    4  A    between atoms: C_8  and  C_9 
ROOT
HETATM    1  O   UNK N   1     -17.511  21.431 -11.888  0.00  0.00    -0.309 OA
HETATM    2  O   UNK N   1     -19.726  22.935  -8.965  0.00  0.00    -0.287 OA
HETATM    3  C   UNK N   1     -18.006  21.512  -9.545  0.00  0.00     0.081 A 
HETATM    4  C   UNK N   1     -17.252  21.023 -10.647  0.00  0.00     0.095 A 
HETATM    5  C   UNK N   1     -18.442  22.334 -12.176  0.00  0.00     0.090 A 
HETATM    6  C   UNK N   1     -19.022  22.460  -9.832  0.00  0.00     0.190 A 
HETATM    7  C   UNK N   1     -19.222  22.875 -11.147  0.00  0.00     0.094 A 
HETATM    8  C   UNK N   1     -17.691  21.029  -8.232  0.00  0.00     0.085 A 
HETATM    9  C   UNK N   1     -16.214  20.110 -10.448  0.00  0.00     0.075 A 
HETATM   10  C   UNK N   1     -15.904  19.660  -9.168  0.00  0.00     0.071 A 
HETATM   11  C   UNK N   1     -16.643  20.114  -8.073  0.00  0.00     0.074 A 
ENDROOT
BRANCH   5  12
HETATM   12  C   UNK N   1     -18.629  22.750 -13.591  0.00  0.00    -0.002 A 
HETATM   13  C   UNK N   1     -19.571  23.737 -13.946  0.00  0.00     0.017 A 
HETATM   14  C   UNK N   1     -19.717  24.127 -15.279  0.00  0.00     0.037 A 
HETATM   15  C   UNK N   1     -18.942  23.525 -16.278  0.00  0.00     0.065 A 
HETATM   16  C   UNK N   1     -18.012  22.540 -15.935  0.00  0.00     0.037 A 
HETATM   17  C   UNK N   1     -17.845  22.164 -14.599  0.00  0.00     0.017 A 
BRANCH  15  18
HETATM   18  O   UNK N   1     -19.083  23.891 -17.568  0.00  0.00    -0.361 OA
HETATM   19  H   UNK N   1     -18.319  24.127 -18.114  0.00  0.00     0.217 HD
ENDBRANCH  15  18
ENDBRANCH   5  12
BRANCH   8  20
HETATM   20  O   UNK N   1     -18.345  21.406  -7.108  0.00  0.00    -0.360 OA
HETATM   21  H   UNK N   1     -18.612  22.298  -6.872  0.00  0.00     0.217 HD
ENDBRANCH   8  20
BRANCH  10  22
HETATM   22  O   UNK N   1     -14.890  18.787  -8.996  0.00  0.00    -0.361 OA
HETATM   23  H   UNK N   1     -14.815  17.982  -9.528  0.00  0.00     0.217 HD
ENDBRANCH  10  22
TORSDOF 4
ENDMDL
MODEL 2
REMARK VINA RESULT:      -7.4      1.952      7.046
REMARK  4 active torsions:
REMARK  status: ('A' for Active; 'I' for Inactive)
REMARK    1  A    between atoms: O_2  and  C_12 
REMARK    2  A    between atoms: O_4  and  C_14 
REMARK    3  A    between atoms: O_5  and  C_20 
REMARK    4  A    between atoms: C_8  and  C_9 
ROOT
HETATM    1  O   UNK N   1     -18.022  21.916  -9.865  0.00  0.00    -0.309 OA
HETATM    2  O   UNK N   1     -17.593  20.924 -13.680  0.00  0.00    -0.287 OA
HETATM    3  C   UNK N   1     -18.476  22.421 -12.162  0.00  0.00     0.081 A 
HETATM    4  C   UNK N   1     -18.581  22.712 -10.774  0.00  0.00     0.095 A 
HETATM    5  C   UNK N   1     -17.307  20.841 -10.182  0.00  0.00     0.090 A 
HETATM    6  C   UNK N   1     -17.738  21.264 -12.523  0.00  0.00     0.190 A 
HETATM    7  C   UNK N   1     -17.145  20.491 -11.528  0.00  0.00     0.094 A 
HETATM    8  C   UNK N   1     -19.108  23.308 -13.096  0.00  0.00     0.085 A 
HETATM    9  C   UNK N   1     -19.265  23.848 -10.336  0.00  0.00     0.075 A 
HETATM   10  C   UNK N   1     -19.861  24.711 -11.251  0.00  0.00     0.071 A 
HETATM   11  C   UNK N   1     -19.785  24.436 -12.618  0.00  0.00     0.074 A 
ENDROOT
BRANCH   5  12
HETATM   12  C   UNK N   1     -16.693  20.037  -9.093  0.00  0.00    -0.002 A 
HETATM   13  C   UNK N   1     -17.220  20.051  -7.786  0.00  0.00     0.017 A 
HETATM   14  C   UNK N   1     -16.640  19.273  -6.782  0.00  0.00     0.037 A 
HETATM   15  C   UNK N   1     -15.515  18.487  -7.061  0.00  0.00     0.065 A 
HETATM   16  C   UNK N   1     -14.981  18.474  -8.352  0.00  0.00     0.037 A 
HETATM   17  C   UNK N   1     -15.574  19.232  -9.367  0.00  0.00     0.017 A 
BRANCH  15  18
HETATM   18  O   UNK N   1     -14.945  17.738  -6.095  0.00  0.00    -0.361 OA
HETATM   19  H   UNK N   1     -14.694  16.817  -6.250  0.00  0.00     0.217 HD
ENDBRANCH  15  18
ENDBRANCH   5  12
BRANCH   8  20
HETATM   20  O   UNK N   1     -19.093  23.131 -14.438  0.00  0.00    -0.360 OA
HETATM   21  H   UNK N   1     -18.550  23.604 -15.074  0.00  0.00     0.217 HD
ENDBRANCH   8  20
BRANCH  10  22
HETATM   22  O   UNK N   1     -20.507  25.809 -10.807  0.00  0.00    -0.361 OA
HETATM   23  H   UNK N   1     -20.535  26.038  -9.867  0.00  0.00     0.217 HD
ENDBRANCH  10  22
TORSDOF 4
ENDMDL
MODEL 3
REMARK VINA RESULT:      -7.4      1.588      6.694
REMARK  4 active torsions:
REMARK  status: ('A' for Active; 'I' for Inactive)
REMARK    1  A    between atoms: O_2  and  C_12 
REMARK    2  A    between atoms: O_4  and  C_14 
REMARK    3  A    between atoms: O_5  and  C_20 
REMARK    4  A    between atoms: C_8  and  C_9 
ROOT
HETATM    1  O   UNK N   1     -18.131  22.341 -12.380  0.00  0.00    -0.309 OA
HETATM    2  O   UNK N   1     -20.495  25.282 -11.165  0.00  0.00    -0.287 OA
HETATM    3  C   UNK N   1     -19.553  24.179 -12.959  0.00  0.00     0.081 A 
HETATM    4  C   UNK N   1     -18.697  23.101 -13.314  0.00  0.00     0.095 A 
HETATM    5  C   UNK N   1     -18.353  22.502 -11.079  0.00  0.00     0.090 A 
HETATM    6  C   UNK N   1     -19.785  24.386 -11.575  0.00  0.00     0.190 A 
HETATM    7  C   UNK N   1     -19.194  23.534 -10.645  0.00  0.00     0.094 A 
HETATM    8  C   UNK N   1     -20.125  24.973 -14.008  0.00  0.00     0.085 A 
HETATM    9  C   UNK N   1     -18.439  22.811 -14.656  0.00  0.00     0.075 A 
HETATM   10  C   UNK N   1     -19.013  23.576 -15.668  0.00  0.00     0.071 A 
HETATM   11  C   UNK N   1     -19.844  24.650 -15.341  0.00  0.00     0.074 A 
ENDROOT
BRANCH   5  12
HETATM   12  C   UNK N   1     -17.701  21.577 -10.116  0.00  0.00    -0.002 A 
HETATM   13  C   UNK N   1     -16.741  20.636 -10.539  0.00  0.00     0.017 A 
HETATM   14  C   UNK N   1     -16.126  19.789  -9.615  0.00  0.00     0.037 A 
HETATM   15  C   UNK N   1     -16.474  19.853  -8.260  0.00  0.00     0.065 A 
HETATM   16  C   UNK N   1     -17.432  20.778  -7.833  0.00  0.00     0.037 A 
HETATM   17  C   UNK N   1     -18.032  21.645  -8.752  0.00  0.00     0.017 A 
BRANCH  15  18
HETATM   18  O   UNK N   1     -15.890  19.034  -7.363  0.00  0.00    -0.361 OA
HETATM   19  H   UNK N   1     -15.457  18.212  -7.633  0.00  0.00     0.217 HD
ENDBRANCH  15  18
ENDBRANCH   5  12
BRANCH   8  20
HETATM   20  O   UNK N   1     -20.941  26.032 -13.798  0.00  0.00    -0.360 OA
HETATM   21  H   UNK N   1     -20.971  26.588 -13.014  0.00  0.00     0.217 HD
ENDBRANCH   8  20
BRANCH  10  22
HETATM   22  O   UNK N   1     -18.761  23.271 -16.958  0.00  0.00    -0.361 OA
HETATM   23  H   UNK N   1     -17.886  23.403 -17.350  0.00  0.00     0.217 HD
ENDBRANCH  10  22
TORSDOF 4
ENDMDL
MODEL 4
REMARK VINA RESULT:      -7.3      1.681      7.268
REMARK  4 active torsions:
REMARK  status: ('A' for Active; 'I' for Inactive)
REMARK    1  A    between atoms: O_2  and  C_12 
REMARK    2  A    between atoms: O_4  and  C_14 
REMARK    3  A    between atoms: O_5  and  C_20 
REMARK    4  A    between atoms: C_8  and  C_9 
ROOT
HETATM    1  O   UNK N   1     -19.104  23.481 -12.514  0.00  0.00    -0.309 OA
HETATM    2  O   UNK N   1     -17.682  21.729 -15.773  0.00  0.00    -0.287 OA
HETATM    3  C   UNK N   1     -18.944  23.453 -14.904  0.00  0.00     0.081 A 
HETATM    4  C   UNK N   1     -19.411  24.026 -13.689  0.00  0.00     0.095 A 
HETATM    5  C   UNK N   1     -18.322  22.413 -12.390  0.00  0.00     0.090 A 
HETATM    6  C   UNK N   1     -18.127  22.297 -14.797  0.00  0.00     0.190 A 
HETATM    7  C   UNK N   1     -17.810  21.795 -13.537  0.00  0.00     0.094 A 
HETATM    8  C   UNK N   1     -19.316  24.076 -16.141  0.00  0.00     0.085 A 
HETATM    9  C   UNK N   1     -20.195  25.182 -13.704  0.00  0.00     0.075 A 
HETATM   10  C   UNK N   1     -20.537  25.789 -14.909  0.00  0.00     0.071 A 
HETATM   11  C   UNK N   1     -20.103  25.234 -16.115  0.00  0.00     0.074 A 
ENDROOT
BRANCH   5  12
HETATM   12  C   UNK N   1     -18.009  21.902 -11.030  0.00  0.00    -0.002 A 
HETATM   13  C   UNK N   1     -18.553  22.505  -9.878  0.00  0.00     0.017 A 
HETATM   14  C   UNK N   1     -18.262  21.997  -8.610  0.00  0.00     0.037 A 
HETATM   15  C   UNK N   1     -17.409  20.895  -8.471  0.00  0.00     0.065 A 
HETATM   16  C   UNK N   1     -16.859  20.296  -9.608  0.00  0.00     0.037 A 
HETATM   17  C   UNK N   1     -17.167  20.786 -10.881  0.00  0.00     0.017 A 
BRANCH  15  18
HETATM   18  O   UNK N   1     -17.117  20.403  -7.250  0.00  0.00    -0.361 OA
HETATM   19  H   UNK N   1     -17.107  20.969  -6.465  0.00  0.00     0.217 HD
ENDBRANCH  15  18
ENDBRANCH   5  12
BRANCH   8  20
HETATM   20  O   UNK N   1     -18.948  23.618 -17.361  0.00  0.00    -0.360 OA
HETATM   21  H   UNK N   1     -18.438  24.093 -18.023  0.00  0.00     0.217 HD
ENDBRANCH   8  20
BRANCH  10  22
HETATM   22  O   UNK N   1     -21.286  26.911 -14.900  0.00  0.00    -0.361 OA
HETATM   23  H   UNK N   1     -20.890  27.787 -15.006  0.00  0.00     0.217 HD
ENDBRANCH  10  22
TORSDOF 4
ENDMDL
MODEL 5
REMARK VINA RESULT:      -7.2      2.123      7.070
REMARK  4 active torsions:
REMARK  status: ('A' for Active; 'I' for Inactive)
REMARK    1  A    between atoms: O_2  and  C_12 
REMARK    2  A    between atoms: O_4  and  C_14 
REMARK    3  A    between atoms: O_5  and  C_20 
REMARK    4  A    between atoms: C_8  and  C_9 
ROOT
HETATM    1  O   UNK N   1     -18.841  23.074 -14.183  0.00  0.00    -0.309 OA
HETATM    2  O   UNK N   1     -20.789  26.214 -12.749  0.00  0.00    -0.287 OA
HETATM    3  C   UNK N   1     -20.145  25.034 -14.624  0.00  0.00     0.081 A 
HETATM    4  C   UNK N   1     -19.432  23.884 -15.059  0.00  0.00     0.095 A 
HETATM    5  C   UNK N   1     -18.908  23.253 -12.868  0.00  0.00     0.090 A 
HETATM    6  C   UNK N   1     -20.210  25.259 -13.224  0.00  0.00     0.190 A 
HETATM    7  C   UNK N   1     -19.601  24.356 -12.355  0.00  0.00     0.094 A 
HETATM    8  C   UNK N   1     -20.753  25.877 -15.612  0.00  0.00     0.085 A 
HETATM    9  C   UNK N   1     -19.346  23.573 -16.418  0.00  0.00     0.075 A 
HETATM   10  C   UNK N   1     -19.953  24.389 -17.369  0.00  0.00     0.071 A 
HETATM   11  C   UNK N   1     -20.644  25.533 -16.965  0.00  0.00     0.074 A 
ENDROOT
BRANCH   5  12
HETATM   12  C   UNK N   1     -18.243  22.271 -11.972  0.00  0.00    -0.002 A 
HETATM   13  C   UNK N   1     -17.903  22.602 -10.645  0.00  0.00     0.017 A 
HETATM   14  C   UNK N   1     -17.297  21.658  -9.813  0.00  0.00     0.037 A 
HETATM   15  C   UNK N   1     -17.002  20.378 -10.299  0.00  0.00     0.065 A 
HETATM   16  C   UNK N   1     -17.328  20.044 -11.616  0.00  0.00     0.037 A 
HETATM   17  C   UNK N   1     -17.958  20.978 -12.445  0.00  0.00     0.017 A 
BRANCH  15  18
HETATM   18  O   UNK N   1     -16.410  19.464  -9.505  0.00  0.00    -0.361 OA
HETATM   19  H   UNK N   1     -16.779  19.227  -8.642  0.00  0.00     0.217 HD
ENDBRANCH  15  18
ENDBRANCH   5  12
BRANCH   8  20
HETATM   20  O   UNK N   1     -21.443  27.006 -15.325  0.00  0.00    -0.360 OA
HETATM   21  H   UNK N   1     -22.370  27.176 -15.515  0.00  0.00     0.217 HD
ENDBRANCH   8  20
BRANCH  10  22
HETATM   22  O   UNK N   1     -19.867  24.064 -18.676  0.00  0.00    -0.361 OA
HETATM   23  H   UNK N   1     -19.041  23.752 -19.070  0.00  0.00     0.217 HD
ENDBRANCH  10  22
TORSDOF 4
ENDMDL
MODEL 6
REMARK VINA RESULT:      -7.2      2.218      4.619
REMARK  4 active torsions:
REMARK  status: ('A' for Active; 'I' for Inactive)
REMARK    1  A    between atoms: O_2  and  C_12 
REMARK    2  A    between atoms: O_4  and  C_14 
REMARK    3  A    between atoms: O_5  and  C_20 
REMARK    4  A    between atoms: C_8  and  C_9 
ROOT
HETATM    1  O   UNK N   1     -17.422  20.769  -7.945  0.00  0.00    -0.309 OA
HETATM    2  O   UNK N   1     -14.562  18.057  -8.369  0.00  0.00    -0.287 OA
HETATM    3  C   UNK N   1     -15.984  19.151  -6.919  0.00  0.00     0.081 A 
HETATM    4  C   UNK N   1     -17.010  20.133  -6.851  0.00  0.00     0.095 A 
HETATM    5  C   UNK N   1     -16.947  20.508  -9.159  0.00  0.00     0.090 A 
HETATM    6  C   UNK N   1     -15.444  18.873  -8.202  0.00  0.00     0.190 A 
HETATM    7  C   UNK N   1     -15.942  19.545  -9.316  0.00  0.00     0.094 A 
HETATM    8  C   UNK N   1     -15.572  18.507  -5.706  0.00  0.00     0.085 A 
HETATM    9  C   UNK N   1     -17.615  20.445  -5.631  0.00  0.00     0.075 A 
HETATM   10  C   UNK N   1     -17.219  19.802  -4.461  0.00  0.00     0.071 A 
HETATM   11  C   UNK N   1     -16.202  18.846  -4.502  0.00  0.00     0.074 A 
ENDROOT
BRANCH   5  12
HETATM   12  C   UNK N   1     -17.499  21.248 -10.324  0.00  0.00    -0.002 A 
HETATM   13  C   UNK N   1     -17.873  22.603 -10.221  0.00  0.00     0.017 A 
HETATM   14  C   UNK N   1     -18.371  23.286 -11.332  0.00  0.00     0.037 A 
HETATM   15  C   UNK N   1     -18.524  22.622 -12.556  0.00  0.00     0.065 A 
HETATM   16  C   UNK N   1     -18.164  21.276 -12.665  0.00  0.00     0.037 A 
HETATM   17  C   UNK N   1     -17.641  20.595 -11.560  0.00  0.00     0.017 A 
BRANCH  15  18
HETATM   18  O   UNK N   1     -19.011  23.272 -13.632  0.00  0.00    -0.361 OA
HETATM   19  H   UNK N   1     -19.832  23.783 -13.587  0.00  0.00     0.217 HD
ENDBRANCH  15  18
ENDBRANCH   5  12
BRANCH   8  20
HETATM   20  O   UNK N   1     -14.598  17.569  -5.639  0.00  0.00    -0.360 OA
HETATM   21  H   UNK N   1     -14.065  17.241  -6.368  0.00  0.00     0.217 HD
ENDBRANCH   8  20
BRANCH  10  22
HETATM   22  O   UNK N   1     -17.825  20.109  -3.295  0.00  0.00    -0.361 OA
HETATM   23  H   UNK N   1     -18.517  20.784  -3.244  0.00  0.00     0.217 HD
ENDBRANCH  10  22
TORSDOF 4
ENDMDL
MODEL 7
REMARK VINA RESULT:      -7.0      2.314      7.702
REMARK  4 active torsions:
REMARK  status: ('A' for Active; 'I' for Inactive)
REMARK    1  A    between atoms: O_2  and  C_12 
REMARK    2  A    between atoms: O_4  and  C_14 
REMARK    3  A    between atoms: O_5  and  C_20 
REMARK    4  A    between atoms: C_8  and  C_9 
ROOT
HETATM    1  O   UNK N   1     -17.688  21.149  -8.695  0.00  0.00    -0.309 OA
HETATM    2  O   UNK N   1     -16.193  19.538 -11.994  0.00  0.00    -0.287 OA
HETATM    3  C   UNK N   1     -17.645  21.086 -11.089  0.00  0.00     0.081 A 
HETATM    4  C   UNK N   1     -18.128  21.616  -9.862  0.00  0.00     0.095 A 
HETATM    5  C   UNK N   1     -16.755  20.207  -8.595  0.00  0.00     0.090 A 
HETATM    6  C   UNK N   1     -16.666  20.061 -11.006  0.00  0.00     0.190 A 
HETATM    7  C   UNK N   1     -16.218  19.640  -9.756  0.00  0.00     0.094 A 
HETATM    8  C   UNK N   1     -18.163  21.618 -12.316  0.00  0.00     0.085 A 
HETATM    9  C   UNK N   1     -19.070  22.647  -9.855  0.00  0.00     0.075 A 
HETATM   10  C   UNK N   1     -19.555  23.169 -11.051  0.00  0.00     0.071 A 
HETATM   11  C   UNK N   1     -19.107  22.652 -12.268  0.00  0.00     0.074 A 
ENDROOT
BRANCH   5  12
HETATM   12  C   UNK N   1     -16.305  19.780  -7.244  0.00  0.00    -0.002 A 
HETATM   13  C   UNK N   1     -16.813  20.386  -6.077  0.00  0.00     0.017 A 
HETATM   14  C   UNK N   1     -16.391  19.956  -4.817  0.00  0.00     0.037 A 
HETATM   15  C   UNK N   1     -15.442  18.932  -4.703  0.00  0.00     0.065 A 
HETATM   16  C   UNK N   1     -14.928  18.332  -5.856  0.00  0.00     0.037 A 
HETATM   17  C   UNK N   1     -15.366  18.742  -7.119  0.00  0.00     0.017 A 
BRANCH  15  18
HETATM   18  O   UNK N   1     -15.025  18.516  -3.490  0.00  0.00    -0.361 OA
HETATM   19  H   UNK N   1     -14.298  18.956  -3.026  0.00  0.00     0.217 HD
ENDBRANCH  15  18
ENDBRANCH   5  12
BRANCH   8  20
HETATM   20  O   UNK N   1     -17.794  21.187 -13.545  0.00  0.00    -0.360 OA
HETATM   21  H   UNK N   1     -17.160  21.605 -14.134  0.00  0.00     0.217 HD
ENDBRANCH   8  20
BRANCH  10  22
HETATM   22  O   UNK N   1     -20.456  24.173 -11.022  0.00  0.00    -0.361 OA
HETATM   23  H   UNK N   1     -20.866  24.465 -10.196  0.00  0.00     0.217 HD
ENDBRANCH  10  22
TORSDOF 4
ENDMDL
MODEL 8
REMARK VINA RESULT:      -7.0      2.757      4.118
REMARK  4 active torsions:
REMARK  status: ('A' for Active; 'I' for Inactive)
REMARK    1  A    between atoms: O_2  and  C_12 
REMARK    2  A    between atoms: O_4  and  C_14 
REMARK    3  A    between atoms: O_5  and  C_20 
REMARK    4  A    between atoms: C_8  and  C_9 
ROOT
HETATM    1  O   UNK N   1     -19.085  23.638 -10.770  0.00  0.00    -0.309 OA
HETATM    2  O   UNK N   1     -17.815  21.380 -13.771  0.00  0.00    -0.287 OA
HETATM    3  C   UNK N   1     -17.900  21.683 -11.486  0.00  0.00     0.081 A 
HETATM    4  C   UNK N   1     -18.395  22.542 -10.466  0.00  0.00     0.095 A 
HETATM    5  C   UNK N   1     -19.391  23.980 -12.018  0.00  0.00     0.090 A 
HETATM    6  C   UNK N   1     -18.195  22.042 -12.827  0.00  0.00     0.190 A 
HETATM    7  C   UNK N   1     -18.953  23.183 -13.081  0.00  0.00     0.094 A 
HETATM    8  C   UNK N   1     -17.152  20.521 -11.099  0.00  0.00     0.085 A 
HETATM    9  C   UNK N   1     -18.174  22.245  -9.119  0.00  0.00     0.075 A 
HETATM   10  C   UNK N   1     -17.462  21.106  -8.753  0.00  0.00     0.071 A 
HETATM   11  C   UNK N   1     -16.953  20.258  -9.739  0.00  0.00     0.074 A 
ENDROOT
BRANCH   5  12
HETATM   12  C   UNK N   1     -20.199  25.207 -12.251  0.00  0.00    -0.002 A 
HETATM   13  C   UNK N   1     -20.518  25.637 -13.554  0.00  0.00     0.017 A 
HETATM   14  C   UNK N   1     -21.294  26.781 -13.751  0.00  0.00     0.037 A 
HETATM   15  C   UNK N   1     -21.745  27.523 -12.652  0.00  0.00     0.065 A 
HETATM   16  C   UNK N   1     -21.426  27.108 -11.356  0.00  0.00     0.037 A 
HETATM   17  C   UNK N   1     -20.670  25.949 -11.154  0.00  0.00     0.017 A 
BRANCH  15  18
HETATM   18  O   UNK N   1     -22.489  28.633 -12.834  0.00  0.00    -0.361 OA
HETATM   19  H   UNK N   1     -22.148  29.399 -13.318  0.00  0.00     0.217 HD
ENDBRANCH  15  18
ENDBRANCH   5  12
BRANCH   8  20
HETATM   20  O   UNK N   1     -16.618  19.638 -11.975  0.00  0.00    -0.360 OA
HETATM   21  H   UNK N   1     -15.780  19.724 -12.437  0.00  0.00     0.217 HD
ENDBRANCH   8  20
BRANCH  10  22
HETATM   22  O   UNK N   1     -17.271  20.832  -7.446  0.00  0.00    -0.361 OA
HETATM   23  H   UNK N   1     -16.598  20.203  -7.151  0.00  0.00     0.217 HD
ENDBRANCH  10  22
TORSDOF 4
ENDMDL
MODEL 9
REMARK VINA RESULT:      -6.9     16.244     17.486
REMARK  4 active torsions:
REMARK  status: ('A' for Active; 'I' for Inactive)
REMARK    1  A    between atoms: O_2  and  C_12 
REMARK    2  A    between atoms: O_4  and  C_14 
REMARK    3  A    between atoms: O_5  and  C_20 
REMARK    4  A    between atoms: C_8  and  C_9 
ROOT
HETATM    1  O   UNK N   1     -23.020  11.759   0.093  0.00  0.00    -0.309 OA
HETATM    2  O   UNK N   1     -23.354  15.013   2.331  0.00  0.00    -0.287 OA
HETATM    3  C   UNK N   1     -24.291  13.703   0.680  0.00  0.00     0.081 A 
HETATM    4  C   UNK N   1     -24.101  12.517  -0.081  0.00  0.00     0.095 A 
HETATM    5  C   UNK N   1     -22.084  12.025   0.998  0.00  0.00     0.090 A 
HETATM    6  C   UNK N   1     -23.291  14.021   1.635  0.00  0.00     0.190 A 
HETATM    7  C   UNK N   1     -22.200  13.169   1.797  0.00  0.00     0.094 A 
HETATM    8  C   UNK N   1     -25.468  14.487   0.442  0.00  0.00     0.085 A 
HETATM    9  C   UNK N   1     -25.053  12.116  -1.021  0.00  0.00     0.075 A 
HETATM   10  C   UNK N   1     -26.200  12.874  -1.233  0.00  0.00     0.071 A 
HETATM   11  C   UNK N   1     -26.399  14.052  -0.509  0.00  0.00     0.074 A 
ENDROOT
BRANCH   5  12
HETATM   12  C   UNK N   1     -20.932  11.096   1.139  0.00  0.00    -0.002 A 
HETATM   13  C   UNK N   1     -20.864   9.897   0.402  0.00  0.00     0.017 A 
HETATM   14  C   UNK N   1     -19.764   9.047   0.534  0.00  0.00     0.037 A 
HETATM   15  C   UNK N   1     -18.727   9.370   1.418  0.00  0.00     0.065 A 
HETATM   16  C   UNK N   1     -18.790  10.553   2.159  0.00  0.00     0.037 A 
HETATM   17  C   UNK N   1     -19.878  11.420   2.011  0.00  0.00     0.017 A 
BRANCH  15  18
HETATM   18  O   UNK N   1     -17.665   8.551   1.557  0.00  0.00    -0.361 OA
HETATM   19  H   UNK N   1     -16.758   8.873   1.447  0.00  0.00     0.217 HD
ENDBRANCH  15  18
ENDBRANCH   5  12
BRANCH   8  20
HETATM   20  O   UNK N   1     -25.753  15.641   1.089  0.00  0.00    -0.360 OA
HETATM   21  H   UNK N   1     -26.282  16.371   0.756  0.00  0.00     0.217 HD
ENDBRANCH   8  20
BRANCH  10  22
HETATM   22  O   UNK N   1     -27.113  12.463  -2.137  0.00  0.00    -0.361 OA
HETATM   23  H   UNK N   1     -26.986  12.600  -3.087  0.00  0.00     0.217 HD
ENDBRANCH  10  22
TORSDOF 4
ENDMDL
