MODEL 1
REMARK VINA RESULT:      -7.8      0.000      0.000
REMARK  5 active torsions:
REMARK  status: ('A' for Active; 'I' for Inactive)
REMARK    1  A    between atoms: O_2  and  C_13 
REMARK    2  A    between atoms: O_4  and  C_16 
REMARK    3  A    between atoms: O_5  and  C_19 
REMARK    4  A    between atoms: O_6  and  C_21 
REMARK    5  A    between atoms: C_9  and  C_10 
ROOT
HETATM    1  O   UNK N   1     -17.201  20.909 -10.682  0.00  0.00    -0.309 OA
HETATM    2  O   UNK N   1     -19.230  22.318  -7.581  0.00  0.00    -0.287 OA
HETATM    3  C   UNK N   1     -17.577  20.887  -8.317  0.00  0.00     0.081 A 
HETATM    4  C   UNK N   1     -16.892  20.433  -9.478  0.00  0.00     0.095 A 
HETATM    5  C   UNK N   1     -18.121  21.849 -10.876  0.00  0.00     0.090 A 
HETATM    6  C   UNK N   1     -18.581  21.871  -8.505  0.00  0.00     0.190 A 
HETATM    7  C   UNK N   1     -18.835  22.355  -9.784  0.00  0.00     0.094 A 
HETATM    8  C   UNK N   1     -17.210  20.331  -7.046  0.00  0.00     0.085 A 
HETATM    9  C   UNK N   1     -15.871  19.485  -9.376  0.00  0.00     0.075 A 
HETATM   10  C   UNK N   1     -15.513  18.963  -8.136  0.00  0.00     0.071 A 
HETATM   11  C   UNK N   1     -16.184  19.382  -6.985  0.00  0.00     0.074 A 
ENDROOT
BRANCH   5  12
HETATM   12  C   UNK N   1     -18.369  22.342 -12.253  0.00  0.00     0.001 A 
HETATM   13  C   UNK N   1     -17.702  21.746 -13.337  0.00  0.00     0.053 A 
HETATM   14  C   UNK N   1     -17.930  22.190 -14.645  0.00  0.00     0.099 A 
HETATM   15  C   UNK N   1     -18.809  23.264 -14.876  0.00  0.00     0.098 A 
HETATM   16  C   UNK N   1     -19.462  23.871 -13.796  0.00  0.00     0.040 A 
HETATM   17  C   UNK N   1     -19.255  23.409 -12.498  0.00  0.00     0.017 A 
BRANCH  14  18
HETATM   18  O   UNK N   1     -17.299  21.574 -15.667  0.00  0.00    -0.358 OA
HETATM   19  H   UNK N   1     -16.823  20.740 -15.553  0.00  0.00     0.218 HD
ENDBRANCH  14  18
BRANCH  15  20
HETATM   20  O   UNK N   1     -19.020  23.710 -16.132  0.00  0.00    -0.358 OA
HETATM   21  H   UNK N   1     -19.889  24.025 -16.418  0.00  0.00     0.218 HD
ENDBRANCH  15  20
ENDBRANCH   5  12
BRANCH   8  22
HETATM   22  O   UNK N   1     -17.797  20.670  -5.874  0.00  0.00    -0.360 OA
HETATM   23  H   UNK N   1     -18.599  21.187  -5.761  0.00  0.00     0.217 HD
ENDBRANCH   8  22
BRANCH  10  24
HETATM   24  O   UNK N   1     -14.518  18.055  -8.058  0.00  0.00    -0.361 OA
HETATM   25  H   UNK N   1     -13.634  18.296  -7.747  0.00  0.00     0.217 HD
ENDBRANCH  10  24
TORSDOF 5
ENDMDL
MODEL 2
REMARK VINA RESULT:      -7.6      1.212      1.887
REMARK  5 active torsions:
REMARK  status: ('A' for Active; 'I' for Inactive)
REMARK    1  A    between atoms: O_2  and  C_13 
REMARK    2  A    between atoms: O_4  and  C_16 
REMARK    3  A    between atoms: O_5  and  C_19 
REMARK    4  A    between atoms: O_6  and  C_21 
REMARK    5  A    between atoms: C_9  and  C_10 
ROOT
HETATM    1  O   UNK N   1     -17.385  21.276 -11.722  0.00  0.00    -0.309 OA
HETATM    2  O   UNK N   1     -19.653  22.798  -8.848  0.00  0.00    -0.287 OA
HETATM    3  C   UNK N   1     -17.916  21.378  -9.389  0.00  0.00     0.081 A 
HETATM    4  C   UNK N   1     -17.144  20.880 -10.475  0.00  0.00     0.095 A 
HETATM    5  C   UNK N   1     -18.315  22.174 -12.031  0.00  0.00     0.090 A 
HETATM    6  C   UNK N   1     -18.932  22.319  -9.701  0.00  0.00     0.190 A 
HETATM    7  C   UNK N   1     -19.113  22.720 -11.020  0.00  0.00     0.094 A 
HETATM    8  C   UNK N   1     -17.620  20.908  -8.067  0.00  0.00     0.085 A 
HETATM    9  C   UNK N   1     -16.107  19.971 -10.250  0.00  0.00     0.075 A 
HETATM   10  C   UNK N   1     -15.818  19.533  -8.961  0.00  0.00     0.071 A 
HETATM   11  C   UNK N   1     -16.575  19.996  -7.883  0.00  0.00     0.074 A 
ENDROOT
BRANCH   5  12
HETATM   12  C   UNK N   1     -18.484  22.579 -13.448  0.00  0.00     0.001 A 
HETATM   13  C   UNK N   1     -19.382  23.609 -13.776  0.00  0.00     0.053 A 
HETATM   14  C   UNK N   1     -19.550  24.013 -15.105  0.00  0.00     0.099 A 
HETATM   15  C   UNK N   1     -18.837  23.362 -16.130  0.00  0.00     0.098 A 
HETATM   16  C   UNK N   1     -17.954  22.323 -15.808  0.00  0.00     0.040 A 
HETATM   17  C   UNK N   1     -17.769  21.942 -14.481  0.00  0.00     0.017 A 
BRANCH  14  18
HETATM   18  O   UNK N   1     -20.395  25.028 -15.383  0.00  0.00    -0.358 OA
HETATM   19  H   UNK N   1     -20.817  25.553 -14.689  0.00  0.00     0.218 HD
ENDBRANCH  14  18
BRANCH  15  20
HETATM   20  O   UNK N   1     -19.006  23.733 -17.415  0.00  0.00    -0.358 OA
HETATM   21  H   UNK N   1     -18.467  24.428 -17.817  0.00  0.00     0.218 HD
ENDBRANCH  15  20
ENDBRANCH   5  12
BRANCH   8  22
HETATM   22  O   UNK N   1     -18.292  21.296  -6.957  0.00  0.00    -0.360 OA
HETATM   23  H   UNK N   1     -18.041  21.128  -6.045  0.00  0.00     0.217 HD
ENDBRANCH   8  22
BRANCH  10  24
HETATM   24  O   UNK N   1     -14.807  18.662  -8.764  0.00  0.00    -0.361 OA
HETATM   25  H   UNK N   1     -14.353  18.236  -9.505  0.00  0.00     0.217 HD
ENDBRANCH  10  24
TORSDOF 5
ENDMDL
MODEL 3
REMARK VINA RESULT:      -7.5      1.854      7.137
REMARK  5 active torsions:
REMARK  status: ('A' for Active; 'I' for Inactive)
REMARK    1  A    between atoms: O_2  and  C_13 
REMARK    2  A    between atoms: O_4  and  C_16 
REMARK    3  A    between atoms: O_5  and  C_19 
REMARK    4  A    between atoms: O_6  and  C_21 
REMARK    5  A    between atoms: C_9  and  C_10 
ROOT
HETATM    1  O   UNK N   1     -18.230  22.464 -12.461  0.00  0.00    -0.309 OA
HETATM    2  O   UNK N   1     -20.585  25.440 -11.315  0.00  0.00    -0.287 OA
HETATM    3  C   UNK N   1     -19.640  24.298 -13.082  0.00  0.00     0.081 A 
HETATM    4  C   UNK N   1     -18.785  23.210 -13.413  0.00  0.00     0.095 A 
HETATM    5  C   UNK N   1     -18.460  22.652 -11.165  0.00  0.00     0.090 A 
HETATM    6  C   UNK N   1     -19.878  24.532 -11.703  0.00  0.00     0.190 A 
HETATM    7  C   UNK N   1     -19.297  23.697 -10.756  0.00  0.00     0.094 A 
HETATM    8  C   UNK N   1     -20.202  25.075 -14.149  0.00  0.00     0.085 A 
HETATM    9  C   UNK N   1     -18.522  22.895 -14.748  0.00  0.00     0.075 A 
HETATM   10  C   UNK N   1     -19.084  23.647 -15.776  0.00  0.00     0.071 A 
HETATM   11  C   UNK N   1     -19.912  24.729 -15.473  0.00  0.00     0.074 A 
ENDROOT
BRANCH   5  12
HETATM   12  C   UNK N   1     -17.823  21.745 -10.180  0.00  0.00     0.001 A 
HETATM   13  C   UNK N   1     -18.137  21.867  -8.816  0.00  0.00     0.053 A 
HETATM   14  C   UNK N   1     -17.555  21.014  -7.871  0.00  0.00     0.099 A 
HETATM   15  C   UNK N   1     -16.620  20.046  -8.284  0.00  0.00     0.098 A 
HETATM   16  C   UNK N   1     -16.292  19.933  -9.641  0.00  0.00     0.040 A 
HETATM   17  C   UNK N   1     -16.895  20.765 -10.583  0.00  0.00     0.017 A 
BRANCH  14  18
HETATM   18  O   UNK N   1     -17.903  21.135  -6.573  0.00  0.00    -0.358 OA
HETATM   19  H   UNK N   1     -17.544  21.830  -6.004  0.00  0.00     0.218 HD
ENDBRANCH  14  18
BRANCH  15  20
HETATM   20  O   UNK N   1     -16.041  19.232  -7.378  0.00  0.00    -0.358 OA
HETATM   21  H   UNK N   1     -16.062  19.431  -6.432  0.00  0.00     0.218 HD
ENDBRANCH  15  20
ENDBRANCH   5  12
BRANCH   8  22
HETATM   22  O   UNK N   1     -21.016  26.141 -13.961  0.00  0.00    -0.360 OA
HETATM   23  H   UNK N   1     -21.456  26.654 -14.644  0.00  0.00     0.217 HD
ENDBRANCH   8  22
BRANCH  10  24
HETATM   24  O   UNK N   1     -18.823  23.321 -17.059  0.00  0.00    -0.361 OA
HETATM   25  H   UNK N   1     -18.685  23.998 -17.737  0.00  0.00     0.217 HD
ENDBRANCH  10  24
TORSDOF 5
ENDMDL
MODEL 4
REMARK VINA RESULT:      -7.4      1.490      7.639
REMARK  5 active torsions:
REMARK  status: ('A' for Active; 'I' for Inactive)
REMARK    1  A    between atoms: O_2  and  C_13 
REMARK    2  A    between atoms: O_4  and  C_16 
REMARK    3  A    between atoms: O_5  and  C_19 
REMARK    4  A    between atoms: O_6  and  C_21 
REMARK    5  A    between atoms: C_9  and  C_10 
ROOT
HETATM    1  O   UNK N   1     -18.901  23.043 -12.204  0.00  0.00    -0.309 OA
HETATM    2  O   UNK N   1     -17.546  21.457 -15.575  0.00  0.00    -0.287 OA
HETATM    3  C   UNK N   1     -18.817  23.116 -14.596  0.00  0.00     0.081 A 
HETATM    4  C   UNK N   1     -19.260  23.627 -13.345  0.00  0.00     0.095 A 
HETATM    5  C   UNK N   1     -18.091  21.991 -12.151  0.00  0.00     0.090 A 
HETATM    6  C   UNK N   1     -17.972  21.976 -14.563  0.00  0.00     0.190 A 
HETATM    7  C   UNK N   1     -17.604  21.432 -13.337  0.00  0.00     0.094 A 
HETATM    8  C   UNK N   1     -19.242  23.778 -15.795  0.00  0.00     0.085 A 
HETATM    9  C   UNK N   1     -20.071  24.763 -13.289  0.00  0.00     0.075 A 
HETATM   10  C   UNK N   1     -20.467  25.407 -14.458  0.00  0.00     0.071 A 
HETATM   11  C   UNK N   1     -20.057  24.912 -15.698  0.00  0.00     0.074 A 
ENDROOT
BRANCH   5  12
HETATM   12  C   UNK N   1     -17.721  21.432 -10.828  0.00  0.00     0.001 A 
HETATM   13  C   UNK N   1     -18.318  21.944  -9.663  0.00  0.00     0.053 A 
HETATM   14  C   UNK N   1     -17.989  21.424  -8.406  0.00  0.00     0.099 A 
HETATM   15  C   UNK N   1     -17.028  20.402  -8.301  0.00  0.00     0.098 A 
HETATM   16  C   UNK N   1     -16.419  19.901  -9.458  0.00  0.00     0.040 A 
HETATM   17  C   UNK N   1     -16.768  20.401 -10.711  0.00  0.00     0.017 A 
BRANCH  14  18
HETATM   18  O   UNK N   1     -18.605  21.915  -7.310  0.00  0.00    -0.358 OA
HETATM   19  H   UNK N   1     -18.423  22.801  -6.969  0.00  0.00     0.218 HD
ENDBRANCH  14  18
BRANCH  15  20
HETATM   20  O   UNK N   1     -16.692  19.907  -7.092  0.00  0.00    -0.358 OA
HETATM   21  H   UNK N   1     -15.816  19.534  -6.922  0.00  0.00     0.218 HD
ENDBRANCH  15  20
ENDBRANCH   5  12
BRANCH   8  22
HETATM   22  O   UNK N   1     -18.900  23.379 -17.043  0.00  0.00    -0.360 OA
HETATM   23  H   UNK N   1     -19.128  23.816 -17.868  0.00  0.00     0.217 HD
ENDBRANCH   8  22
BRANCH  10  24
HETATM   24  O   UNK N   1     -21.244  26.507 -14.382  0.00  0.00    -0.361 OA
HETATM   25  H   UNK N   1     -22.209  26.445 -14.332  0.00  0.00     0.217 HD
ENDBRANCH  10  24
TORSDOF 5
ENDMDL
MODEL 5
REMARK VINA RESULT:      -7.4      1.670      7.103
REMARK  5 active torsions:
REMARK  status: ('A' for Active; 'I' for Inactive)
REMARK    1  A    between atoms: O_2  and  C_13 
REMARK    2  A    between atoms: O_4  and  C_16 
REMARK    3  A    between atoms: O_5  and  C_19 
REMARK    4  A    between atoms: O_6  and  C_21 
REMARK    5  A    between atoms: C_9  and  C_10 
ROOT
HETATM    1  O   UNK N   1     -17.979  21.720  -9.719  0.00  0.00    -0.309 OA
HETATM    2  O   UNK N   1     -17.414  20.661 -13.497  0.00  0.00    -0.287 OA
HETATM    3  C   UNK N   1     -18.331  22.196 -12.039  0.00  0.00     0.081 A 
HETATM    4  C   UNK N   1     -18.488  22.509 -10.661  0.00  0.00     0.095 A 
HETATM    5  C   UNK N   1     -17.269  20.629  -9.992  0.00  0.00     0.090 A 
HETATM    6  C   UNK N   1     -17.598  21.022 -12.352  0.00  0.00     0.190 A 
HETATM    7  C   UNK N   1     -17.060  20.255 -11.324  0.00  0.00     0.094 A 
HETATM    8  C   UNK N   1     -18.910  23.077 -13.012  0.00  0.00     0.085 A 
HETATM    9  C   UNK N   1     -19.172  23.662 -10.269  0.00  0.00     0.075 A 
HETATM   10  C   UNK N   1     -19.719  24.518 -11.221  0.00  0.00     0.071 A 
HETATM   11  C   UNK N   1     -19.590  24.221 -12.579  0.00  0.00     0.074 A 
ENDROOT
BRANCH   5  12
HETATM   12  C   UNK N   1     -16.711  19.833  -8.873  0.00  0.00     0.001 A 
HETATM   13  C   UNK N   1     -15.453  19.221  -9.011  0.00  0.00     0.053 A 
HETATM   14  C   UNK N   1     -14.904  18.474  -7.963  0.00  0.00     0.099 A 
HETATM   15  C   UNK N   1     -15.630  18.303  -6.770  0.00  0.00     0.098 A 
HETATM   16  C   UNK N   1     -16.891  18.897  -6.635  0.00  0.00     0.040 A 
HETATM   17  C   UNK N   1     -17.424  19.664  -7.669  0.00  0.00     0.017 A 
BRANCH  14  18
HETATM   18  O   UNK N   1     -13.679  17.927  -8.116  0.00  0.00    -0.358 OA
HETATM   19  H   UNK N   1     -13.545  17.074  -8.551  0.00  0.00     0.218 HD
ENDBRANCH  14  18
BRANCH  15  20
HETATM   20  O   UNK N   1     -15.116  17.569  -5.762  0.00  0.00    -0.358 OA
HETATM   21  H   UNK N   1     -15.362  16.641  -5.634  0.00  0.00     0.218 HD
ENDBRANCH  15  20
ENDBRANCH   5  12
BRANCH   8  22
HETATM   22  O   UNK N   1     -18.841  22.879 -14.349  0.00  0.00    -0.360 OA
HETATM   23  H   UNK N   1     -18.976  23.538 -15.035  0.00  0.00     0.217 HD
ENDBRANCH   8  22
BRANCH  10  24
HETATM   24  O   UNK N   1     -20.369  25.631 -10.822  0.00  0.00    -0.361 OA
HETATM   25  H   UNK N   1     -21.033  26.059 -11.380  0.00  0.00     0.217 HD
ENDBRANCH  10  24
TORSDOF 5
ENDMDL
MODEL 6
REMARK VINA RESULT:      -7.4      2.436      7.826
REMARK  5 active torsions:
REMARK  status: ('A' for Active; 'I' for Inactive)
REMARK    1  A    between atoms: O_2  and  C_13 
REMARK    2  A    between atoms: O_4  and  C_16 
REMARK    3  A    between atoms: O_5  and  C_19 
REMARK    4  A    between atoms: O_6  and  C_21 
REMARK    5  A    between atoms: C_9  and  C_10 
ROOT
HETATM    1  O   UNK N   1     -19.045  23.291 -14.537  0.00  0.00    -0.309 OA
HETATM    2  O   UNK N   1     -20.953  26.487 -13.175  0.00  0.00    -0.287 OA
HETATM    3  C   UNK N   1     -20.325  25.256 -15.022  0.00  0.00     0.081 A 
HETATM    4  C   UNK N   1     -19.624  24.088 -15.431  0.00  0.00     0.095 A 
HETATM    5  C   UNK N   1     -19.112  23.502 -13.226  0.00  0.00     0.090 A 
HETATM    6  C   UNK N   1     -20.387  25.513 -13.627  0.00  0.00     0.190 A 
HETATM    7  C   UNK N   1     -19.791  24.624 -12.740  0.00  0.00     0.094 A 
HETATM    8  C   UNK N   1     -20.922  26.084 -16.029  0.00  0.00     0.085 A 
HETATM    9  C   UNK N   1     -19.541  23.748 -16.784  0.00  0.00     0.075 A 
HETATM   10  C   UNK N   1     -20.135  24.551 -17.752  0.00  0.00     0.071 A 
HETATM   11  C   UNK N   1     -20.814  25.711 -17.374  0.00  0.00     0.074 A 
ENDROOT
BRANCH   5  12
HETATM   12  C   UNK N   1     -18.464  22.536 -12.306  0.00  0.00     0.001 A 
HETATM   13  C   UNK N   1     -18.162  21.239 -12.756  0.00  0.00     0.053 A 
HETATM   14  C   UNK N   1     -17.541  20.316 -11.907  0.00  0.00     0.099 A 
HETATM   15  C   UNK N   1     -17.244  20.676 -10.579  0.00  0.00     0.098 A 
HETATM   16  C   UNK N   1     -17.559  21.962 -10.123  0.00  0.00     0.040 A 
HETATM   17  C   UNK N   1     -18.151  22.888 -10.978  0.00  0.00     0.017 A 
BRANCH  14  18
HETATM   18  O   UNK N   1     -17.235  19.089 -12.381  0.00  0.00    -0.358 OA
HETATM   19  H   UNK N   1     -16.492  18.938 -12.980  0.00  0.00     0.218 HD
ENDBRANCH  14  18
BRANCH  15  20
HETATM   20  O   UNK N   1     -16.663  19.786  -9.749  0.00  0.00    -0.358 OA
HETATM   21  H   UNK N   1     -15.975  19.179 -10.058  0.00  0.00     0.218 HD
ENDBRANCH  15  20
ENDBRANCH   5  12
BRANCH   8  22
HETATM   22  O   UNK N   1     -21.600  27.226 -15.766  0.00  0.00    -0.360 OA
HETATM   23  H   UNK N   1     -21.261  28.123 -15.829  0.00  0.00     0.217 HD
ENDBRANCH   8  22
BRANCH  10  24
HETATM   24  O   UNK N   1     -20.050  24.200 -19.053  0.00  0.00    -0.361 OA
HETATM   25  H   UNK N   1     -20.343  23.332 -19.364  0.00  0.00     0.217 HD
ENDBRANCH  10  24
TORSDOF 5
ENDMDL
MODEL 7
REMARK VINA RESULT:      -7.2      1.871      3.432
REMARK  5 active torsions:
REMARK  status: ('A' for Active; 'I' for Inactive)
REMARK    1  A    between atoms: O_2  and  C_13 
REMARK    2  A    between atoms: O_4  and  C_16 
REMARK    3  A    between atoms: O_5  and  C_19 
REMARK    4  A    between atoms: O_6  and  C_21 
REMARK    5  A    between atoms: C_9  and  C_10 
ROOT
HETATM    1  O   UNK N   1     -18.271  22.016  -9.260  0.00  0.00    -0.309 OA
HETATM    2  O   UNK N   1     -15.551  19.656 -10.917  0.00  0.00    -0.287 OA
HETATM    3  C   UNK N   1     -16.692  20.235  -8.997  0.00  0.00     0.081 A 
HETATM    4  C   UNK N   1     -17.680  21.116  -8.477  0.00  0.00     0.095 A 
HETATM    5  C   UNK N   1     -18.016  22.127 -10.560  0.00  0.00     0.090 A 
HETATM    6  C   UNK N   1     -16.386  20.354 -10.377  0.00  0.00     0.190 A 
HETATM    7  C   UNK N   1     -17.062  21.291 -11.151  0.00  0.00     0.094 A 
HETATM    8  C   UNK N   1     -16.080  19.292  -8.106  0.00  0.00     0.085 A 
HETATM    9  C   UNK N   1     -18.060  21.045  -7.135  0.00  0.00     0.075 A 
HETATM   10  C   UNK N   1     -17.470  20.117  -6.282  0.00  0.00     0.071 A 
HETATM   11  C   UNK N   1     -16.485  19.254  -6.767  0.00  0.00     0.074 A 
ENDROOT
BRANCH   5  12
HETATM   12  C   UNK N   1     -18.754  23.137 -11.356  0.00  0.00     0.001 A 
HETATM   13  C   UNK N   1     -19.343  24.238 -10.711  0.00  0.00     0.053 A 
HETATM   14  C   UNK N   1     -20.034  25.209 -11.445  0.00  0.00     0.099 A 
HETATM   15  C   UNK N   1     -20.171  25.066 -12.839  0.00  0.00     0.098 A 
HETATM   16  C   UNK N   1     -19.599  23.962 -13.482  0.00  0.00     0.040 A 
HETATM   17  C   UNK N   1     -18.887  23.011 -12.753  0.00  0.00     0.017 A 
BRANCH  14  18
HETATM   18  O   UNK N   1     -20.560  26.271 -10.800  0.00  0.00    -0.358 OA
HETATM   19  H   UNK N   1     -21.407  26.226 -10.336  0.00  0.00     0.218 HD
ENDBRANCH  14  18
BRANCH  15  20
HETATM   20  O   UNK N   1     -20.851  25.987 -13.552  0.00  0.00    -0.358 OA
HETATM   21  H   UNK N   1     -21.818  25.985 -13.592  0.00  0.00     0.218 HD
ENDBRANCH  15  20
ENDBRANCH   5  12
BRANCH   8  22
HETATM   22  O   UNK N   1     -15.119  18.414  -8.477  0.00  0.00    -0.360 OA
HETATM   23  H   UNK N   1     -15.217  17.463  -8.576  0.00  0.00     0.217 HD
ENDBRANCH   8  22
BRANCH  10  24
HETATM   24  O   UNK N   1     -17.856  20.059  -4.991  0.00  0.00    -0.361 OA
HETATM   25  H   UNK N   1     -17.260  20.309  -4.271  0.00  0.00     0.217 HD
ENDBRANCH  10  24
TORSDOF 5
ENDMDL
MODEL 8
REMARK VINA RESULT:      -7.2      1.638      3.527
REMARK  5 active torsions:
REMARK  status: ('A' for Active; 'I' for Inactive)
REMARK    1  A    between atoms: O_2  and  C_13 
REMARK    2  A    between atoms: O_4  and  C_16 
REMARK    3  A    between atoms: O_5  and  C_19 
REMARK    4  A    between atoms: O_6  and  C_21 
REMARK    5  A    between atoms: C_9  and  C_10 
ROOT
HETATM    1  O   UNK N   1     -17.595  20.695  -7.895  0.00  0.00    -0.309 OA
HETATM    2  O   UNK N   1     -14.663  18.052  -8.258  0.00  0.00    -0.287 OA
HETATM    3  C   UNK N   1     -16.196  19.054  -6.854  0.00  0.00     0.081 A 
HETATM    4  C   UNK N   1     -17.241  20.017  -6.806  0.00  0.00     0.095 A 
HETATM    5  C   UNK N   1     -17.039  20.497  -9.086  0.00  0.00     0.090 A 
HETATM    6  C   UNK N   1     -15.571  18.845  -8.111  0.00  0.00     0.190 A 
HETATM    7  C   UNK N   1     -16.009  19.560  -9.221  0.00  0.00     0.094 A 
HETATM    8  C   UNK N   1     -15.848  18.360  -5.648  0.00  0.00     0.085 A 
HETATM    9  C   UNK N   1     -17.926  20.262  -5.613  0.00  0.00     0.075 A 
HETATM   10  C   UNK N   1     -17.591  19.573  -4.451  0.00  0.00     0.071 A 
HETATM   11  C   UNK N   1     -16.557  18.635  -4.472  0.00  0.00     0.074 A 
ENDROOT
BRANCH   5  12
HETATM   12  C   UNK N   1     -17.527  21.277 -10.249  0.00  0.00     0.001 A 
HETATM   13  C   UNK N   1     -17.410  20.744 -11.544  0.00  0.00     0.053 A 
HETATM   14  C   UNK N   1     -17.874  21.459 -12.654  0.00  0.00     0.099 A 
HETATM   15  C   UNK N   1     -18.433  22.738 -12.478  0.00  0.00     0.098 A 
HETATM   16  C   UNK N   1     -18.536  23.279 -11.190  0.00  0.00     0.040 A 
HETATM   17  C   UNK N   1     -18.099  22.553 -10.084  0.00  0.00     0.017 A 
BRANCH  14  18
HETATM   18  O   UNK N   1     -17.777  20.904 -13.881  0.00  0.00    -0.358 OA
HETATM   19  H   UNK N   1     -16.926  20.672 -14.276  0.00  0.00     0.218 HD
ENDBRANCH  14  18
BRANCH  15  20
HETATM   20  O   UNK N   1     -18.866  23.442 -13.544  0.00  0.00    -0.358 OA
HETATM   21  H   UNK N   1     -19.773  23.361 -13.871  0.00  0.00     0.218 HD
ENDBRANCH  15  20
ENDBRANCH   5  12
BRANCH   8  22
HETATM   22  O   UNK N   1     -14.865  17.434  -5.563  0.00  0.00    -0.360 OA
HETATM   23  H   UNK N   1     -14.367  17.056  -6.293  0.00  0.00     0.217 HD
ENDBRANCH   8  22
BRANCH  10  24
HETATM   24  O   UNK N   1     -18.270  19.819  -3.311  0.00  0.00    -0.361 OA
HETATM   25  H   UNK N   1     -17.817  20.070  -2.494  0.00  0.00     0.217 HD
ENDBRANCH  10  24
TORSDOF 5
ENDMDL
MODEL 9
REMARK VINA RESULT:      -7.1      1.150      2.660
REMARK  5 active torsions:
REMARK  status: ('A' for Active; 'I' for Inactive)
REMARK    1  A    between atoms: O_2  and  C_13 
REMARK    2  A    between atoms: O_4  and  C_16 
REMARK    3  A    between atoms: O_5  and  C_19 
REMARK    4  A    between atoms: O_6  and  C_21 
REMARK    5  A    between atoms: C_9  and  C_10 
ROOT
HETATM    1  O   UNK N   1     -18.204  21.638  -9.590  0.00  0.00    -0.309 OA
HETATM    2  O   UNK N   1     -15.150  19.115  -9.416  0.00  0.00    -0.287 OA
HETATM    3  C   UNK N   1     -16.825  20.202  -8.259  0.00  0.00     0.081 A 
HETATM    4  C   UNK N   1     -17.908  21.113  -8.404  0.00  0.00     0.095 A 
HETATM    5  C   UNK N   1     -17.550  21.326 -10.705  0.00  0.00     0.090 A 
HETATM    6  C   UNK N   1     -16.097  19.876  -9.433  0.00  0.00     0.190 A 
HETATM    7  C   UNK N   1     -16.476  20.431 -10.650  0.00  0.00     0.094 A 
HETATM    8  C   UNK N   1     -16.544  19.675  -6.955  0.00  0.00     0.085 A 
HETATM    9  C   UNK N   1     -18.692  21.464  -7.302  0.00  0.00     0.075 A 
HETATM   10  C   UNK N   1     -18.420  20.936  -6.044  0.00  0.00     0.071 A 
HETATM   11  C   UNK N   1     -17.351  20.053  -5.876  0.00  0.00     0.074 A 
ENDROOT
BRANCH   5  12
HETATM   12  C   UNK N   1     -17.978  21.938 -11.987  0.00  0.00     0.001 A 
HETATM   13  C   UNK N   1     -17.603  21.341 -13.203  0.00  0.00     0.053 A 
HETATM   14  C   UNK N   1     -18.005  21.896 -14.423  0.00  0.00     0.099 A 
HETATM   15  C   UNK N   1     -18.763  23.081 -14.437  0.00  0.00     0.098 A 
HETATM   16  C   UNK N   1     -19.124  23.688 -13.227  0.00  0.00     0.040 A 
HETATM   17  C   UNK N   1     -18.746  23.118 -12.013  0.00  0.00     0.017 A 
BRANCH  14  18
HETATM   18  O   UNK N   1     -17.656  21.279 -15.572  0.00  0.00    -0.358 OA
HETATM   19  H   UNK N   1     -18.308  21.031 -16.243  0.00  0.00     0.218 HD
ENDBRANCH  14  18
BRANCH  15  20
HETATM   20  O   UNK N   1     -19.139  23.633 -15.609  0.00  0.00    -0.358 OA
HETATM   21  H   UNK N   1     -19.780  23.200 -16.190  0.00  0.00     0.218 HD
ENDBRANCH  15  20
ENDBRANCH   5  12
BRANCH   8  22
HETATM   22  O   UNK N   1     -15.534  18.814  -6.687  0.00  0.00    -0.360 OA
HETATM   23  H   UNK N   1     -15.616  17.927  -6.326  0.00  0.00     0.217 HD
ENDBRANCH   8  22
BRANCH  10  24
HETATM   24  O   UNK N   1     -19.194  21.282  -4.994  0.00  0.00    -0.361 OA
HETATM   25  H   UNK N   1     -19.849  21.992  -5.059  0.00  0.00     0.217 HD
ENDBRANCH  10  24
TORSDOF 5
ENDMDL
