MODEL 1
REMARK VINA RESULT:      -5.8      0.000      0.000
REMARK  0 active torsions:
REMARK  status: ('A' for Active; 'I' for Inactive)
ROOT
HETATM    1  O   UNK N   1     -30.039  43.311 -10.172  0.00  0.00    -0.265 OA
HETATM    2  O   UNK N   1     -29.746  38.883  -9.382  0.00  0.00    -0.246 OA
HETATM    3  N   UNK N   1     -31.223  43.605  -7.518  0.00  0.00    -0.340 N 
HETATM    4  N   UNK N   1     -30.635  40.171  -7.743  0.00  0.00    -0.288 N 
HETATM    5  N   UNK N   1     -29.866  41.085  -9.833  0.00  0.00    -0.273 N 
HETATM    6  N   UNK N   1     -31.532  41.809  -6.203  0.00  0.00    -0.336 N 
ATOM      7  HN  UNK N   1     -31.788  41.220  -5.411  1.00  0.00     0.168 HD
HETATM    8  C   UNK N   1     -30.786  42.511  -8.169  0.00  0.00     0.148 A 
HETATM    9  C   UNK N   1     -30.975  41.433  -7.372  0.00  0.00     0.145 A 
HETATM   10  C   UNK N   1     -30.220  42.358  -9.434  0.00  0.00     0.280 A 
HETATM   11  C   UNK N   1     -30.069  39.994  -9.001  0.00  0.00     0.330 A 
HETATM   12  C   UNK N   1     -31.673  43.153  -6.322  0.00  0.00     0.184 A 
HETATM   13  C   UNK N   1     -30.871  39.052  -6.823  0.00  0.00     0.163 C 
HETATM   14  C   UNK N   1     -31.229  44.991  -7.963  0.00  0.00     0.157 C 
HETATM   15  H   UNK N   1     -29.439  40.936 -10.776  0.00  0.00     0.173 HD
ENDROOT
TORSDOF 0
ENDMDL
MODEL 2
REMARK VINA RESULT:      -5.4     23.807     25.381
REMARK  0 active torsions:
REMARK  status: ('A' for Active; 'I' for Inactive)
ROOT
HETATM    1  O   UNK N   1     -19.109  22.240  -8.389  0.00  0.00    -0.265 OA
HETATM    2  O   UNK N   1     -17.001  20.051  -5.059  0.00  0.00    -0.246 OA
HETATM    3  N   UNK N   1     -17.242  20.992 -10.257  0.00  0.00    -0.340 N 
HETATM    4  N   UNK N   1     -16.228  19.726  -7.166  0.00  0.00    -0.288 N 
HETATM    5  N   UNK N   1     -18.092  21.170  -6.680  0.00  0.00    -0.273 N 
HETATM    6  N   UNK N   1     -15.650  19.592  -9.512  0.00  0.00    -0.336 N 
ATOM      7  HN  UNK N   1     -14.860  18.947  -9.487  1.00  0.00     0.168 HD
HETATM    8  C   UNK N   1     -17.349  20.887  -8.920  0.00  0.00     0.148 A 
HETATM    9  C   UNK N   1     -16.387  20.042  -8.477  0.00  0.00     0.145 A 
HETATM   10  C   UNK N   1     -18.234  21.476  -8.018  0.00  0.00     0.280 A 
HETATM   11  C   UNK N   1     -17.100  20.302  -6.248  0.00  0.00     0.330 A 
HETATM   12  C   UNK N   1     -16.200  20.194 -10.596  0.00  0.00     0.184 A 
HETATM   13  C   UNK N   1     -15.161  18.801  -6.763  0.00  0.00     0.163 C 
HETATM   14  C   UNK N   1     -18.048  21.778 -11.179  0.00  0.00     0.157 C 
HETATM   15  H   UNK N   1     -18.741  21.595  -5.978  0.00  0.00     0.173 HD
ENDROOT
TORSDOF 0
ENDMDL
MODEL 3
REMARK VINA RESULT:      -5.4      1.660      4.094
REMARK  0 active torsions:
REMARK  status: ('A' for Active; 'I' for Inactive)
ROOT
HETATM    1  O   UNK N   1     -29.693  42.119 -10.079  0.00  0.00    -0.265 OA
HETATM    2  O   UNK N   1     -30.479  46.546  -9.758  0.00  0.00    -0.246 OA
HETATM    3  N   UNK N   1     -30.898  41.814  -7.437  0.00  0.00    -0.340 N 
HETATM    4  N   UNK N   1     -31.119  45.250  -8.011  0.00  0.00    -0.288 N 
HETATM    5  N   UNK N   1     -30.061  44.345  -9.975  0.00  0.00    -0.273 N 
HETATM    6  N   UNK N   1     -31.680  43.605  -6.327  0.00  0.00    -0.336 N 
ATOM      7  HN  UNK N   1     -32.103  44.191  -5.608  1.00  0.00     0.168 HD
HETATM    8  C   UNK N   1     -30.699  42.911  -8.190  0.00  0.00     0.148 A 
HETATM    9  C   UNK N   1     -31.172  43.987  -7.516  0.00  0.00     0.145 A 
HETATM   10  C   UNK N   1     -30.126  43.070  -9.451  0.00  0.00     0.280 A 
HETATM   11  C   UNK N   1     -30.551  45.432  -9.268  0.00  0.00     0.330 A 
HETATM   12  C   UNK N   1     -31.497  42.261  -6.306  0.00  0.00     0.184 A 
HETATM   13  C   UNK N   1     -31.652  46.366  -7.221  0.00  0.00     0.163 C 
HETATM   14  C   UNK N   1     -30.561  40.429  -7.732  0.00  0.00     0.157 C 
HETATM   15  H   UNK N   1     -29.636  44.497 -10.919  0.00  0.00     0.173 HD
ENDROOT
TORSDOF 0
ENDMDL
MODEL 4
REMARK VINA RESULT:      -5.4     23.848     25.537
REMARK  0 active torsions:
REMARK  status: ('A' for Active; 'I' for Inactive)
ROOT
HETATM    1  O   UNK N   1     -15.984  19.910 -10.998  0.00  0.00    -0.265 OA
HETATM    2  O   UNK N   1     -14.868  18.376  -6.909  0.00  0.00    -0.246 OA
HETATM    3  N   UNK N   1     -18.010  21.575  -9.711  0.00  0.00    -0.340 N 
HETATM    4  N   UNK N   1     -16.541  19.902  -7.023  0.00  0.00    -0.288 N 
HETATM    5  N   UNK N   1     -15.381  19.106  -8.976  0.00  0.00    -0.273 N 
HETATM    6  N   UNK N   1     -18.275  21.527  -7.480  0.00  0.00    -0.336 N 
ATOM      7  HN  UNK N   1     -18.622  21.720  -6.541  1.00  0.00     0.168 HD
HETATM    8  C   UNK N   1     -17.124  20.707  -9.189  0.00  0.00     0.148 A 
HETATM    9  C   UNK N   1     -17.289  20.683  -7.844  0.00  0.00     0.145 A 
HETATM   10  C   UNK N   1     -16.153  19.908  -9.791  0.00  0.00     0.280 A 
HETATM   11  C   UNK N   1     -15.567  19.096  -7.602  0.00  0.00     0.330 A 
HETATM   12  C   UNK N   1     -18.700  22.062  -8.652  0.00  0.00     0.184 A 
HETATM   13  C   UNK N   1     -16.779  19.930  -5.574  0.00  0.00     0.163 C 
HETATM   14  C   UNK N   1     -18.217  21.941 -11.105  0.00  0.00     0.157 C 
HETATM   15  H   UNK N   1     -14.644  18.494  -9.397  0.00  0.00     0.173 HD
ENDROOT
TORSDOF 0
ENDMDL
MODEL 5
REMARK VINA RESULT:      -5.3     23.562     25.611
REMARK  0 active torsions:
REMARK  status: ('A' for Active; 'I' for Inactive)
ROOT
HETATM    1  O   UNK N   1     -14.823  18.797  -9.058  0.00  0.00    -0.265 OA
HETATM    2  O   UNK N   1     -17.600  21.411 -11.459  0.00  0.00    -0.246 OA
HETATM    3  N   UNK N   1     -16.244  19.662  -6.658  0.00  0.00    -0.340 N 
HETATM    4  N   UNK N   1     -17.901  21.368  -9.213  0.00  0.00    -0.288 N 
HETATM    5  N   UNK N   1     -16.184  20.088 -10.313  0.00  0.00    -0.273 N 
HETATM    6  N   UNK N   1     -17.961  21.105  -6.808  0.00  0.00    -0.336 N 
ATOM      7  HN  UNK N   1     -18.738  21.716  -6.559  1.00  0.00     0.168 HD
HETATM    8  C   UNK N   1     -16.428  19.983  -7.951  0.00  0.00     0.148 A 
HETATM    9  C   UNK N   1     -17.463  20.852  -8.035  0.00  0.00     0.145 A 
HETATM   10  C   UNK N   1     -15.757  19.577  -9.105  0.00  0.00     0.280 A 
HETATM   11  C   UNK N   1     -17.247  20.977 -10.376  0.00  0.00     0.330 A 
HETATM   12  C   UNK N   1     -17.189  20.357  -5.979  0.00  0.00     0.184 A 
HETATM   13  C   UNK N   1     -19.031  22.305  -9.223  0.00  0.00     0.163 C 
HETATM   14  C   UNK N   1     -15.257  18.768  -6.069  0.00  0.00     0.157 C 
HETATM   15  H   UNK N   1     -15.702  19.804 -11.197  0.00  0.00     0.173 HD
ENDROOT
TORSDOF 0
ENDMDL
MODEL 6
REMARK VINA RESULT:      -5.3      2.320      4.987
REMARK  0 active torsions:
REMARK  status: ('A' for Active; 'I' for Inactive)
ROOT
HETATM    1  O   UNK N   1     -31.589  42.279  -6.111  0.00  0.00    -0.265 OA
HETATM    2  O   UNK N   1     -31.784  46.683  -7.052  0.00  0.00    -0.246 OA
HETATM    3  N   UNK N   1     -30.384  41.872  -8.740  0.00  0.00    -0.340 N 
HETATM    4  N   UNK N   1     -30.903  45.323  -8.637  0.00  0.00    -0.288 N 
HETATM    5  N   UNK N   1     -31.713  44.495  -6.526  0.00  0.00    -0.273 N 
HETATM    6  N   UNK N   1     -30.024  43.616 -10.111  0.00  0.00    -0.336 N 
ATOM      7  HN  UNK N   1     -29.748  44.173 -10.919  1.00  0.00     0.168 HD
HETATM    8  C   UNK N   1     -30.805  42.996  -8.131  0.00  0.00     0.148 A 
HETATM    9  C   UNK N   1     -30.585  44.043  -8.962  0.00  0.00     0.145 A 
HETATM   10  C   UNK N   1     -31.381  43.203  -6.878  0.00  0.00     0.280 A 
HETATM   11  C   UNK N   1     -31.479  45.553  -7.392  0.00  0.00     0.330 A 
HETATM   12  C   UNK N   1     -29.912  42.275  -9.945  0.00  0.00     0.184 A 
HETATM   13  C   UNK N   1     -30.635  46.405  -9.591  0.00  0.00     0.163 C 
HETATM   14  C   UNK N   1     -30.410  40.502  -8.250  0.00  0.00     0.157 C 
HETATM   15  H   UNK N   1     -32.146  44.684  -5.593  0.00  0.00     0.173 HD
ENDROOT
TORSDOF 0
ENDMDL
MODEL 7
REMARK VINA RESULT:      -5.2     23.560     25.713
REMARK  0 active torsions:
REMARK  status: ('A' for Active; 'I' for Inactive)
ROOT
HETATM    1  O   UNK N   1     -17.502  20.276  -5.599  0.00  0.00    -0.265 OA
HETATM    2  O   UNK N   1     -19.201  22.529  -9.113  0.00  0.00    -0.246 OA
HETATM    3  N   UNK N   1     -15.605  19.034  -7.439  0.00  0.00    -0.340 N 
HETATM    4  N   UNK N   1     -17.474  21.118  -9.523  0.00  0.00    -0.288 N 
HETATM    5  N   UNK N   1     -18.394  21.432  -7.321  0.00  0.00    -0.273 N 
HETATM    6  N   UNK N   1     -15.638  19.545  -9.627  0.00  0.00    -0.336 N 
ATOM      7  HN  UNK N   1     -15.411  19.568 -10.621  1.00  0.00     0.168 HD
HETATM    8  C   UNK N   1     -16.582  19.932  -7.659  0.00  0.00     0.148 A 
HETATM    9  C   UNK N   1     -16.597  20.236  -8.979  0.00  0.00     0.145 A 
HETATM   10  C   UNK N   1     -17.493  20.532  -6.790  0.00  0.00     0.280 A 
HETATM   11  C   UNK N   1     -18.392  21.729  -8.675  0.00  0.00     0.330 A 
HETATM   12  C   UNK N   1     -15.043  18.813  -8.653  0.00  0.00     0.184 A 
HETATM   13  C   UNK N   1     -17.429  21.397 -10.964  0.00  0.00     0.163 C 
HETATM   14  C   UNK N   1     -15.203  18.408  -6.188  0.00  0.00     0.157 C 
HETATM   15  H   UNK N   1     -19.091  21.899  -6.695  0.00  0.00     0.173 HD
ENDROOT
TORSDOF 0
ENDMDL
MODEL 8
REMARK VINA RESULT:      -5.2     31.580     33.694
REMARK  0 active torsions:
REMARK  status: ('A' for Active; 'I' for Inactive)
ROOT
HETATM    1  O   UNK N   1     -19.267  12.903   3.260  0.00  0.00    -0.265 OA
HETATM    2  O   UNK N   1     -18.106   8.911   1.517  0.00  0.00    -0.246 OA
HETATM    3  N   UNK N   1     -21.705  12.782   1.656  0.00  0.00    -0.340 N 
HETATM    4  N   UNK N   1     -20.075   9.807   0.836  0.00  0.00    -0.288 N 
HETATM    5  N   UNK N   1     -18.633  10.905   2.421  0.00  0.00    -0.273 N 
HETATM    6  N   UNK N   1     -22.102  11.022   0.316  0.00  0.00    -0.336 N 
ATOM      7  HN  UNK N   1     -22.546  10.393  -0.352  1.00  0.00     0.168 HD
HETATM    8  C   UNK N   1     -20.680  11.917   1.763  0.00  0.00     0.148 A 
HETATM    9  C   UNK N   1     -20.925  10.859   0.954  0.00  0.00     0.145 A 
HETATM   10  C   UNK N   1     -19.513  11.963   2.524  0.00  0.00     0.280 A 
HETATM   11  C   UNK N   1     -18.903   9.831   1.586  0.00  0.00     0.330 A 
HETATM   12  C   UNK N   1     -22.559  12.216   0.769  0.00  0.00     0.184 A 
HETATM   13  C   UNK N   1     -20.409   8.695  -0.063  0.00  0.00     0.163 C 
HETATM   14  C   UNK N   1     -21.896  14.060   2.327  0.00  0.00     0.157 C 
HETATM   15  H   UNK N   1     -17.748  10.909   2.979  0.00  0.00     0.173 HD
ENDROOT
TORSDOF 0
ENDMDL
MODEL 9
REMARK VINA RESULT:      -5.1     24.245     25.955
REMARK  0 active torsions:
REMARK  status: ('A' for Active; 'I' for Inactive)
ROOT
HETATM    1  O   UNK N   1     -15.400  19.408  -9.810  0.00  0.00    -0.265 OA
HETATM    2  O   UNK N   1     -15.546  17.647  -5.663  0.00  0.00    -0.246 OA
HETATM    3  N   UNK N   1     -17.493  21.270  -8.985  0.00  0.00    -0.340 N 
HETATM    4  N   UNK N   1     -16.956  19.365  -6.110  0.00  0.00    -0.288 N 
HETATM    5  N   UNK N   1     -15.428  18.486  -7.749  0.00  0.00    -0.273 N 
HETATM    6  N   UNK N   1     -18.326  21.198  -6.899  0.00  0.00    -0.336 N 
ATOM      7  HN  UNK N   1     -18.879  21.407  -6.068  1.00  0.00     0.168 HD
HETATM    8  C   UNK N   1     -16.872  20.290  -8.305  0.00  0.00     0.148 A 
HETATM    9  C   UNK N   1     -17.378  20.251  -7.049  0.00  0.00     0.145 A 
HETATM   10  C   UNK N   1     -15.873  19.395  -8.687  0.00  0.00     0.280 A 
HETATM   11  C   UNK N   1     -15.960  18.463  -6.469  0.00  0.00     0.330 A 
HETATM   12  C   UNK N   1     -18.375  21.810  -8.109  0.00  0.00     0.184 A 
HETATM   13  C   UNK N   1     -17.553  19.385  -4.769  0.00  0.00     0.163 C 
HETATM   14  C   UNK N   1     -17.294  21.695 -10.363  0.00  0.00     0.157 C 
HETATM   15  H   UNK N   1     -14.680  17.801  -8.005  0.00  0.00     0.173 HD
ENDROOT
TORSDOF 0
ENDMDL
