MODEL 1
REMARK VINA RESULT:      -5.5      0.000      0.000
REMARK  4 active torsions:
REMARK  status: ('A' for Active; 'I' for Inactive)
REMARK    1  A    between atoms: O_1  and  C_9 
REMARK    2  A    between atoms: O_2  and  C_12 
REMARK    3  A    between atoms: C_4  and  C_10 
REMARK    4  A    between atoms: C_11  and  C_12 
ROOT
HETATM    1  C   UNK N   1     -16.502  19.900  -9.100  0.00  0.00    -0.036 A 
HETATM    2  C   UNK N   1     -17.044  19.952  -7.798  0.00  0.00     0.014 A 
HETATM    3  C   UNK N   1     -15.369  19.101  -9.331  0.00  0.00     0.014 A 
HETATM    4  C   UNK N   1     -16.461  19.226  -6.759  0.00  0.00     0.037 A 
HETATM    5  C   UNK N   1     -14.780  18.385  -8.283  0.00  0.00     0.037 A 
HETATM    6  C   UNK N   1     -15.323  18.446  -6.996  0.00  0.00     0.065 A 
ENDROOT
BRANCH   1   7
HETATM    7  C   UNK N   1     -17.086  20.663 -10.241  0.00  0.00     0.018 C 
HETATM    8  C   UNK N   1     -17.282  20.128 -11.464  0.00  0.00     0.082 C 
BRANCH   8   9
HETATM    9  C   UNK N   1     -17.874  20.899 -12.576  0.00  0.00     0.165 C 
HETATM   10  O   UNK N   1     -18.770  21.704 -12.377  0.00  0.00    -0.647 OA
BRANCH   9  11
HETATM   11  O   UNK N   1     -17.407  20.702 -13.829  0.00  0.00    -0.773 OA
HETATM   12  H   UNK N   1     -17.678  19.933 -14.350  0.00  0.00     0.167 HD
ENDBRANCH   9  11
ENDBRANCH   8   9
ENDBRANCH   1   7
BRANCH   6  13
HETATM   13  O   UNK N   1     -14.748  17.750  -5.993  0.00  0.00    -0.361 OA
HETATM   14  H   UNK N   1     -15.063  17.823  -5.081  0.00  0.00     0.217 HD
ENDBRANCH   6  13
TORSDOF 4
ENDMDL
MODEL 2
REMARK VINA RESULT:      -5.3      1.232      5.805
REMARK  4 active torsions:
REMARK  status: ('A' for Active; 'I' for Inactive)
REMARK    1  A    between atoms: O_1  and  C_9 
REMARK    2  A    between atoms: O_2  and  C_12 
REMARK    3  A    between atoms: C_4  and  C_10 
REMARK    4  A    between atoms: C_11  and  C_12 
ROOT
HETATM    1  C   UNK N   1     -16.746  20.391 -10.450  0.00  0.00    -0.036 A 
HETATM    2  C   UNK N   1     -17.108  19.978 -11.750  0.00  0.00     0.014 A 
HETATM    3  C   UNK N   1     -17.267  21.599  -9.953  0.00  0.00     0.014 A 
HETATM    4  C   UNK N   1     -17.964  20.759 -12.528  0.00  0.00     0.037 A 
HETATM    5  C   UNK N   1     -18.114  22.385 -10.742  0.00  0.00     0.037 A 
HETATM    6  C   UNK N   1     -18.464  21.968 -12.030  0.00  0.00     0.065 A 
ENDROOT
BRANCH   1   7
HETATM    7  C   UNK N   1     -15.830  19.595  -9.583  0.00  0.00     0.018 C 
HETATM    8  C   UNK N   1     -16.164  19.176  -8.345  0.00  0.00     0.082 C 
BRANCH   8   9
HETATM    9  C   UNK N   1     -15.245  18.377  -7.509  0.00  0.00     0.165 C 
HETATM   10  O   UNK N   1     -15.587  17.975  -6.407  0.00  0.00    -0.647 OA
BRANCH   9  11
HETATM   11  O   UNK N   1     -14.012  18.092  -7.980  0.00  0.00    -0.773 OA
HETATM   12  H   UNK N   1     -13.689  17.181  -8.024  0.00  0.00     0.167 HD
ENDBRANCH   9  11
ENDBRANCH   8   9
ENDBRANCH   1   7
BRANCH   6  13
HETATM   13  O   UNK N   1     -19.283  22.732 -12.782  0.00  0.00    -0.361 OA
HETATM   14  H   UNK N   1     -18.953  23.501 -13.268  0.00  0.00     0.217 HD
ENDBRANCH   6  13
TORSDOF 4
ENDMDL
MODEL 3
REMARK VINA RESULT:      -5.2     23.282     25.318
REMARK  4 active torsions:
REMARK  status: ('A' for Active; 'I' for Inactive)
REMARK    1  A    between atoms: O_1  and  C_9 
REMARK    2  A    between atoms: O_2  and  C_12 
REMARK    3  A    between atoms: C_4  and  C_10 
REMARK    4  A    between atoms: C_11  and  C_12 
ROOT
HETATM    1  C   UNK N   1     -30.807  39.941  -9.914  0.00  0.00    -0.036 A 
HETATM    2  C   UNK N   1     -29.928  38.850  -9.749  0.00  0.00     0.014 A 
HETATM    3  C   UNK N   1     -31.992  39.752 -10.647  0.00  0.00     0.014 A 
HETATM    4  C   UNK N   1     -30.228  37.608 -10.310  0.00  0.00     0.037 A 
HETATM    5  C   UNK N   1     -32.283  38.508 -11.218  0.00  0.00     0.037 A 
HETATM    6  C   UNK N   1     -31.403  37.434 -11.052  0.00  0.00     0.065 A 
ENDROOT
BRANCH   1   7
HETATM    7  C   UNK N   1     -30.527  41.289  -9.340  0.00  0.00     0.018 C 
HETATM    8  C   UNK N   1     -30.703  41.588  -8.036  0.00  0.00     0.082 C 
BRANCH   8   9
HETATM    9  C   UNK N   1     -30.407  42.926  -7.487  0.00  0.00     0.165 C 
HETATM   10  O   UNK N   1     -29.927  43.802  -8.189  0.00  0.00    -0.647 OA
BRANCH   9  11
HETATM   11  O   UNK N   1     -30.676  43.174  -6.186  0.00  0.00    -0.773 OA
HETATM   12  H   UNK N   1     -29.991  43.096  -5.508  0.00  0.00     0.167 HD
ENDBRANCH   9  11
ENDBRANCH   8   9
ENDBRANCH   1   7
BRANCH   6  13
HETATM   13  O   UNK N   1     -31.693  36.239 -11.605  0.00  0.00    -0.361 OA
HETATM   14  H   UNK N   1     -31.535  36.063 -12.544  0.00  0.00     0.217 HD
ENDBRANCH   6  13
TORSDOF 4
ENDMDL
MODEL 4
REMARK VINA RESULT:      -5.2     13.808     14.406
REMARK  4 active torsions:
REMARK  status: ('A' for Active; 'I' for Inactive)
REMARK    1  A    between atoms: O_1  and  C_9 
REMARK    2  A    between atoms: O_2  and  C_12 
REMARK    3  A    between atoms: C_4  and  C_10 
REMARK    4  A    between atoms: C_11  and  C_12 
ROOT
HETATM    1  C   UNK N   1     -21.128  10.858   0.916  0.00  0.00    -0.036 A 
HETATM    2  C   UNK N   1     -20.858   9.679   0.188  0.00  0.00     0.014 A 
HETATM    3  C   UNK N   1     -20.216  11.267   1.905  0.00  0.00     0.014 A 
HETATM    4  C   UNK N   1     -19.708   8.933   0.451  0.00  0.00     0.037 A 
HETATM    5  C   UNK N   1     -19.071  10.509   2.173  0.00  0.00     0.037 A 
HETATM    6  C   UNK N   1     -18.815   9.341   1.449  0.00  0.00     0.065 A 
ENDROOT
BRANCH   1   7
HETATM    7  C   UNK N   1     -22.345  11.685   0.676  0.00  0.00     0.018 C 
HETATM    8  C   UNK N   1     -22.908  11.836  -0.540  0.00  0.00     0.082 C 
BRANCH   8   9
HETATM    9  C   UNK N   1     -24.122  12.651  -0.752  0.00  0.00     0.165 C 
HETATM   10  O   UNK N   1     -24.405  13.567   0.004  0.00  0.00    -0.647 OA
BRANCH   9  11
HETATM   11  O   UNK N   1     -24.923  12.369  -1.802  0.00  0.00    -0.773 OA
HETATM   12  H   UNK N   1     -24.994  11.470  -2.154  0.00  0.00     0.167 HD
ENDBRANCH   9  11
ENDBRANCH   8   9
ENDBRANCH   1   7
BRANCH   6  13
HETATM   13  O   UNK N   1     -17.708   8.618   1.714  0.00  0.00    -0.361 OA
HETATM   14  H   UNK N   1     -17.048   8.918   2.355  0.00  0.00     0.217 HD
ENDBRANCH   6  13
TORSDOF 4
ENDMDL
MODEL 5
REMARK VINA RESULT:      -5.1      1.899      6.075
REMARK  4 active torsions:
REMARK  status: ('A' for Active; 'I' for Inactive)
REMARK    1  A    between atoms: O_1  and  C_9 
REMARK    2  A    between atoms: O_2  and  C_12 
REMARK    3  A    between atoms: C_4  and  C_10 
REMARK    4  A    between atoms: C_11  and  C_12 
ROOT
HETATM    1  C   UNK N   1     -16.865  19.865  -8.099  0.00  0.00    -0.036 A 
HETATM    2  C   UNK N   1     -16.237  19.917  -9.361  0.00  0.00     0.014 A 
HETATM    3  C   UNK N   1     -17.764  20.888  -7.746  0.00  0.00     0.014 A 
HETATM    4  C   UNK N   1     -16.501  20.968 -10.240  0.00  0.00     0.037 A 
HETATM    5  C   UNK N   1     -18.015  21.947  -8.626  0.00  0.00     0.037 A 
HETATM    6  C   UNK N   1     -17.385  21.990  -9.873  0.00  0.00     0.065 A 
ENDROOT
BRANCH   1   7
HETATM    7  C   UNK N   1     -16.612  18.766  -7.123  0.00  0.00     0.018 C 
HETATM    8  C   UNK N   1     -17.274  18.649  -5.954  0.00  0.00     0.082 C 
BRANCH   8   9
HETATM    9  C   UNK N   1     -17.015  17.545  -5.007  0.00  0.00     0.165 C 
HETATM   10  O   UNK N   1     -15.875  17.198  -4.743  0.00  0.00    -0.647 OA
BRANCH   9  11
HETATM   11  O   UNK N   1     -18.064  16.918  -4.432  0.00  0.00    -0.773 OA
HETATM   12  H   UNK N   1     -18.462  17.251  -3.615  0.00  0.00     0.167 HD
ENDBRANCH   9  11
ENDBRANCH   8   9
ENDBRANCH   1   7
BRANCH   6  13
HETATM   13  O   UNK N   1     -17.634  23.014 -10.714  0.00  0.00    -0.361 OA
HETATM   14  H   UNK N   1     -17.240  23.888 -10.581  0.00  0.00     0.217 HD
ENDBRANCH   6  13
TORSDOF 4
ENDMDL
MODEL 6
REMARK VINA RESULT:      -5.1     25.276     25.543
REMARK  4 active torsions:
REMARK  status: ('A' for Active; 'I' for Inactive)
REMARK    1  A    between atoms: O_1  and  C_9 
REMARK    2  A    between atoms: O_2  and  C_12 
REMARK    3  A    between atoms: C_4  and  C_10 
REMARK    4  A    between atoms: C_11  and  C_12 
ROOT
HETATM    1  C   UNK N   1     -26.395  -3.454 -12.717  0.00  0.00    -0.036 A 
HETATM    2  C   UNK N   1     -26.499  -4.862 -12.725  0.00  0.00     0.014 A 
HETATM    3  C   UNK N   1     -25.465  -2.848 -11.855  0.00  0.00     0.014 A 
HETATM    4  C   UNK N   1     -25.695  -5.635 -11.886  0.00  0.00     0.037 A 
HETATM    5  C   UNK N   1     -24.670  -3.627 -11.007  0.00  0.00     0.037 A 
HETATM    6  C   UNK N   1     -24.783  -5.021 -11.019  0.00  0.00     0.065 A 
ENDROOT
BRANCH   1   7
HETATM    7  C   UNK N   1     -27.236  -2.585 -13.589  0.00  0.00     0.018 C 
HETATM    8  C   UNK N   1     -28.569  -2.447 -13.429  0.00  0.00     0.082 C 
BRANCH   8   9
HETATM    9  C   UNK N   1     -29.381  -1.570 -14.297  0.00  0.00     0.165 C 
HETATM   10  O   UNK N   1     -29.438  -1.757 -15.503  0.00  0.00    -0.647 OA
BRANCH   9  11
HETATM   11  O   UNK N   1     -30.066  -0.549 -13.738  0.00  0.00    -0.773 OA
HETATM   12  H   UNK N   1     -31.033  -0.555 -13.699  0.00  0.00     0.167 HD
ENDBRANCH   9  11
ENDBRANCH   8   9
ENDBRANCH   1   7
BRANCH   6  13
HETATM   13  O   UNK N   1     -24.011  -5.763 -10.199  0.00  0.00    -0.361 OA
HETATM   14  H   UNK N   1     -24.398  -6.369  -9.551  0.00  0.00     0.217 HD
ENDBRANCH   6  13
TORSDOF 4
ENDMDL
MODEL 7
REMARK VINA RESULT:      -5.1      1.256      1.719
REMARK  4 active torsions:
REMARK  status: ('A' for Active; 'I' for Inactive)
REMARK    1  A    between atoms: O_1  and  C_9 
REMARK    2  A    between atoms: O_2  and  C_12 
REMARK    3  A    between atoms: C_4  and  C_10 
REMARK    4  A    between atoms: C_11  and  C_12 
ROOT
HETATM    1  C   UNK N   1     -16.796  20.191  -8.191  0.00  0.00    -0.036 A 
HETATM    2  C   UNK N   1     -16.867  20.237  -6.782  0.00  0.00     0.014 A 
HETATM    3  C   UNK N   1     -15.941  19.254  -8.796  0.00  0.00     0.014 A 
HETATM    4  C   UNK N   1     -16.095  19.371  -6.006  0.00  0.00     0.037 A 
HETATM    5  C   UNK N   1     -15.160  18.397  -8.014  0.00  0.00     0.037 A 
HETATM    6  C   UNK N   1     -15.234  18.453  -6.619  0.00  0.00     0.065 A 
ENDROOT
BRANCH   1   7
HETATM    7  C   UNK N   1     -17.595  21.100  -9.063  0.00  0.00     0.018 C 
HETATM    8  C   UNK N   1     -17.120  21.633 -10.207  0.00  0.00     0.082 C 
BRANCH   8   9
HETATM    9  C   UNK N   1     -17.934  22.521 -11.062  0.00  0.00     0.165 C 
HETATM   10  O   UNK N   1     -18.316  22.157 -12.163  0.00  0.00    -0.647 OA
BRANCH   9  11
HETATM   11  O   UNK N   1     -18.256  23.751 -10.607  0.00  0.00    -0.773 OA
HETATM   12  H   UNK N   1     -18.951  23.877  -9.946  0.00  0.00     0.167 HD
ENDBRANCH   9  11
ENDBRANCH   8   9
ENDBRANCH   1   7
BRANCH   6  13
HETATM   13  O   UNK N   1     -14.478  17.620  -5.874  0.00  0.00    -0.361 OA
HETATM   14  H   UNK N   1     -14.474  17.669  -4.907  0.00  0.00     0.217 HD
ENDBRANCH   6  13
TORSDOF 4
ENDMDL
MODEL 8
REMARK VINA RESULT:      -4.9     22.649     24.496
REMARK  4 active torsions:
REMARK  status: ('A' for Active; 'I' for Inactive)
REMARK    1  A    between atoms: O_1  and  C_9 
REMARK    2  A    between atoms: O_2  and  C_12 
REMARK    3  A    between atoms: C_4  and  C_10 
REMARK    4  A    between atoms: C_11  and  C_12 
ROOT
HETATM    1  C   UNK N   1     -30.359  39.948  -9.211  0.00  0.00    -0.036 A 
HETATM    2  C   UNK N   1     -30.209  41.303  -9.576  0.00  0.00     0.014 A 
HETATM    3  C   UNK N   1     -30.669  39.636  -7.875  0.00  0.00     0.014 A 
HETATM    4  C   UNK N   1     -30.360  42.313  -8.625  0.00  0.00     0.037 A 
HETATM    5  C   UNK N   1     -30.807  40.652  -6.923  0.00  0.00     0.037 A 
HETATM    6  C   UNK N   1     -30.653  41.991  -7.294  0.00  0.00     0.065 A 
ENDROOT
BRANCH   1   7
HETATM    7  C   UNK N   1     -30.201  38.833 -10.189  0.00  0.00     0.018 C 
HETATM    8  C   UNK N   1     -30.709  37.599  -9.991  0.00  0.00     0.082 C 
BRANCH   8   9
HETATM    9  C   UNK N   1     -30.551  36.513 -10.980  0.00  0.00     0.165 C 
HETATM   10  O   UNK N   1     -31.377  36.342 -11.864  0.00  0.00    -0.647 OA
BRANCH   9  11
HETATM   11  O   UNK N   1     -29.473  35.704 -10.896  0.00  0.00    -0.773 OA
HETATM   12  H   UNK N   1     -28.580  36.066 -10.804  0.00  0.00     0.167 HD
ENDBRANCH   9  11
ENDBRANCH   8   9
ENDBRANCH   1   7
BRANCH   6  13
HETATM   13  O   UNK N   1     -30.789  42.963  -6.369  0.00  0.00    -0.361 OA
HETATM   14  H   UNK N   1     -31.173  43.823  -6.591  0.00  0.00     0.217 HD
ENDBRANCH   6  13
TORSDOF 4
ENDMDL
MODEL 9
REMARK VINA RESULT:      -4.8     28.000     28.602
REMARK  4 active torsions:
REMARK  status: ('A' for Active; 'I' for Inactive)
REMARK    1  A    between atoms: O_1  and  C_9 
REMARK    2  A    between atoms: O_2  and  C_12 
REMARK    3  A    between atoms: C_4  and  C_10 
REMARK    4  A    between atoms: C_11  and  C_12 
ROOT
HETATM    1  C   UNK N   1     -28.926  -4.926 -12.663  0.00  0.00    -0.036 A 
HETATM    2  C   UNK N   1     -30.238  -4.422 -12.533  0.00  0.00     0.014 A 
HETATM    3  C   UNK N   1     -27.912  -4.065 -13.118  0.00  0.00     0.014 A 
HETATM    4  C   UNK N   1     -30.521  -3.094 -12.855  0.00  0.00     0.037 A 
HETATM    5  C   UNK N   1     -28.203  -2.738 -13.451  0.00  0.00     0.037 A 
HETATM    6  C   UNK N   1     -29.506  -2.249 -13.321  0.00  0.00     0.065 A 
ENDROOT
BRANCH   1   7
HETATM    7  C   UNK N   1     -28.576  -6.339 -12.339  0.00  0.00     0.018 C 
HETATM    8  C   UNK N   1     -29.376  -7.151 -11.618  0.00  0.00     0.082 C 
BRANCH   8   9
HETATM    9  C   UNK N   1     -29.014  -8.552 -11.319  0.00  0.00     0.165 C 
HETATM   10  O   UNK N   1     -27.853  -8.927 -11.376  0.00  0.00    -0.647 OA
BRANCH   9  11
HETATM   11  O   UNK N   1     -29.990  -9.421 -10.978  0.00  0.00    -0.773 OA
HETATM   12  H   UNK N   1     -30.657  -9.704 -11.619  0.00  0.00     0.167 HD
ENDBRANCH   9  11
ENDBRANCH   8   9
ENDBRANCH   1   7
BRANCH   6  13
HETATM   13  O   UNK N   1     -29.776  -0.968 -13.644  0.00  0.00    -0.361 OA
HETATM   14  H   UNK N   1     -29.074  -0.307 -13.725  0.00  0.00     0.217 HD
ENDBRANCH   6  13
TORSDOF 4
ENDMDL
