MODEL 1
REMARK VINA RESULT:      -4.8      0.000      0.000
REMARK  5 active torsions:
REMARK  status: ('A' for Active; 'I' for Inactive)
REMARK    1  A    between atoms: O_1  and  C_11 
REMARK    2  A    between atoms: C_2  and  C_3 
REMARK    3  A    between atoms: C_2  and  C_4 
REMARK    4  A    between atoms: C_3  and  C_5 
REMARK    5  A    between atoms: C_8  and  C_11 
ROOT
HETATM    1  C   UNK N   1     -29.899  39.627  -9.323  0.00  0.00     0.037 C 
ENDROOT
BRANCH   1   2
HETATM    2  C   UNK N   1     -30.980  39.006 -10.211  0.00  0.00     0.031 C 
BRANCH   2   3
HETATM    3  C   UNK N   1     -30.594  37.593 -10.578  0.00  0.00    -0.024 C 
HETATM    4  C   UNK N   1     -31.127  36.461 -10.051  0.00  0.00    -0.091 C 
HETATM    5  C   UNK N   1     -30.605  35.122 -10.508  0.00  0.00     0.042 C 
HETATM    6  C   UNK N   1     -32.255  36.444  -9.043  0.00  0.00     0.042 C 
ENDBRANCH   2   3
ENDBRANCH   1   2
BRANCH   1   7
HETATM    7  C   UNK N   1     -30.476  40.180  -8.035  0.00  0.00    -0.085 C 
HETATM    8  C   UNK N   1     -30.832  39.202  -6.933  0.00  0.00     0.043 C 
HETATM    9  C   UNK N   1     -30.651  41.516  -7.906  0.00  0.00     0.001 C 
BRANCH   9  10
HETATM   10  C   UNK N   1     -31.214  42.172  -6.670  0.00  0.00     0.191 C 
BRANCH  10  11
HETATM   11  O   UNK N   1     -30.465  43.305  -6.330  0.00  0.00    -0.397 OA
HETATM   12  H   UNK N   1     -29.874  43.502  -7.104  0.00  0.00     0.209 HD
ENDBRANCH  10  11
ENDBRANCH   9  10
ENDBRANCH   1   7
TORSDOF 5
ENDMDL
MODEL 2
REMARK VINA RESULT:      -4.7     21.046     22.701
REMARK  5 active torsions:
REMARK  status: ('A' for Active; 'I' for Inactive)
REMARK    1  A    between atoms: O_1  and  C_11 
REMARK    2  A    between atoms: C_2  and  C_3 
REMARK    3  A    between atoms: C_2  and  C_4 
REMARK    4  A    between atoms: C_3  and  C_5 
REMARK    5  A    between atoms: C_8  and  C_11 
ROOT
HETATM    1  C   UNK N   1     -18.028  21.882  -8.639  0.00  0.00     0.037 C 
ENDROOT
BRANCH   1   2
HETATM    2  C   UNK N   1     -17.149  22.290  -9.823  0.00  0.00     0.031 C 
BRANCH   2   3
HETATM    3  C   UNK N   1     -18.006  22.864 -10.926  0.00  0.00    -0.024 C 
HETATM    4  C   UNK N   1     -18.412  22.207 -12.042  0.00  0.00    -0.091 C 
HETATM    5  C   UNK N   1     -19.242  22.940 -13.065  0.00  0.00     0.042 C 
HETATM    6  C   UNK N   1     -18.115  20.750 -12.324  0.00  0.00     0.042 C 
ENDBRANCH   2   3
ENDBRANCH   1   2
BRANCH   1   7
HETATM    7  C   UNK N   1     -17.519  20.623  -7.966  0.00  0.00    -0.085 C 
HETATM    8  C   UNK N   1     -16.512  19.770  -8.713  0.00  0.00     0.043 C 
HETATM    9  C   UNK N   1     -17.969  20.302  -6.731  0.00  0.00     0.001 C 
BRANCH   9  10
HETATM   10  C   UNK N   1     -17.528  19.077  -5.970  0.00  0.00     0.191 C 
BRANCH  10  11
HETATM   11  O   UNK N   1     -18.384  17.999  -6.233  0.00  0.00    -0.397 OA
HETATM   12  H   UNK N   1     -18.786  18.163  -7.127  0.00  0.00     0.209 HD
ENDBRANCH  10  11
ENDBRANCH   9  10
ENDBRANCH   1   7
TORSDOF 5
ENDMDL
MODEL 3
REMARK VINA RESULT:      -4.6     21.534     24.104
REMARK  5 active torsions:
REMARK  status: ('A' for Active; 'I' for Inactive)
REMARK    1  A    between atoms: O_1  and  C_11 
REMARK    2  A    between atoms: C_2  and  C_3 
REMARK    3  A    between atoms: C_2  and  C_4 
REMARK    4  A    between atoms: C_3  and  C_5 
REMARK    5  A    between atoms: C_8  and  C_11 
ROOT
HETATM    1  C   UNK N   1     -16.053  18.934  -8.288  0.00  0.00     0.037 C 
ENDROOT
BRANCH   1   2
HETATM    2  C   UNK N   1     -15.873  19.473  -6.867  0.00  0.00     0.031 C 
BRANCH   2   3
HETATM    3  C   UNK N   1     -16.245  18.408  -5.862  0.00  0.00    -0.024 C 
HETATM    4  C   UNK N   1     -17.491  18.172  -5.378  0.00  0.00    -0.091 C 
HETATM    5  C   UNK N   1     -17.686  17.085  -4.351  0.00  0.00     0.042 C 
HETATM    6  C   UNK N   1     -18.730  18.913  -5.828  0.00  0.00     0.042 C 
ENDBRANCH   2   3
ENDBRANCH   1   2
BRANCH   1   7
HETATM    7  C   UNK N   1     -16.590  19.995  -9.229  0.00  0.00    -0.085 C 
HETATM    8  C   UNK N   1     -16.123  19.974 -10.670  0.00  0.00     0.043 C 
HETATM    9  C   UNK N   1     -17.465  20.915  -8.761  0.00  0.00     0.001 C 
BRANCH   9  10
HETATM   10  C   UNK N   1     -18.063  22.010  -9.609  0.00  0.00     0.191 C 
BRANCH  10  11
HETATM   11  O   UNK N   1     -17.256  23.154  -9.575  0.00  0.00    -0.397 OA
HETATM   12  H   UNK N   1     -17.867  23.935  -9.514  0.00  0.00     0.209 HD
ENDBRANCH  10  11
ENDBRANCH   9  10
ENDBRANCH   1   7
TORSDOF 5
ENDMDL
MODEL 4
REMARK VINA RESULT:      -4.5     20.893     23.170
REMARK  5 active torsions:
REMARK  status: ('A' for Active; 'I' for Inactive)
REMARK    1  A    between atoms: O_1  and  C_11 
REMARK    2  A    between atoms: C_2  and  C_3 
REMARK    3  A    between atoms: C_2  and  C_4 
REMARK    4  A    between atoms: C_3  and  C_5 
REMARK    5  A    between atoms: C_8  and  C_11 
ROOT
HETATM    1  C   UNK N   1     -16.475  20.288 -11.097  0.00  0.00     0.037 C 
ENDROOT
BRANCH   1   2
HETATM    2  C   UNK N   1     -17.808  20.214 -11.846  0.00  0.00     0.031 C 
BRANCH   2   3
HETATM    3  C   UNK N   1     -17.806  21.193 -12.996  0.00  0.00    -0.024 C 
HETATM    4  C   UNK N   1     -18.395  22.416 -13.001  0.00  0.00    -0.091 C 
HETATM    5  C   UNK N   1     -18.326  23.259 -14.248  0.00  0.00     0.042 C 
HETATM    6  C   UNK N   1     -19.102  23.021 -11.808  0.00  0.00     0.042 C 
ENDBRANCH   2   3
ENDBRANCH   1   2
BRANCH   1   7
HETATM    7  C   UNK N   1     -16.672  20.272  -9.594  0.00  0.00    -0.085 C 
HETATM    8  C   UNK N   1     -17.468  21.399  -8.966  0.00  0.00     0.043 C 
HETATM    9  C   UNK N   1     -16.141  19.263  -8.865  0.00  0.00     0.001 C 
BRANCH   9  10
HETATM   10  C   UNK N   1     -16.278  19.149  -7.368  0.00  0.00     0.191 C 
BRANCH  10  11
HETATM   11  O   UNK N   1     -17.356  18.318  -7.034  0.00  0.00    -0.397 OA
HETATM   12  H   UNK N   1     -18.128  18.912  -6.843  0.00  0.00     0.209 HD
ENDBRANCH  10  11
ENDBRANCH   9  10
ENDBRANCH   1   7
TORSDOF 5
ENDMDL
MODEL 5
REMARK VINA RESULT:      -4.5     22.304     24.470
REMARK  5 active torsions:
REMARK  status: ('A' for Active; 'I' for Inactive)
REMARK    1  A    between atoms: O_1  and  C_11 
REMARK    2  A    between atoms: C_2  and  C_3 
REMARK    3  A    between atoms: C_2  and  C_4 
REMARK    4  A    between atoms: C_3  and  C_5 
REMARK    5  A    between atoms: C_8  and  C_11 
ROOT
HETATM    1  C   UNK N   1     -16.155  19.623  -9.139  0.00  0.00     0.037 C 
ENDROOT
BRANCH   1   2
HETATM    2  C   UNK N   1     -16.543  19.899  -7.685  0.00  0.00     0.031 C 
BRANCH   2   3
HETATM    3  C   UNK N   1     -15.739  19.013  -6.762  0.00  0.00    -0.024 C 
HETATM    4  C   UNK N   1     -16.241  18.234  -5.770  0.00  0.00    -0.091 C 
HETATM    5  C   UNK N   1     -15.293  17.431  -4.916  0.00  0.00     0.042 C 
HETATM    6  C   UNK N   1     -17.717  18.082  -5.476  0.00  0.00     0.042 C 
ENDBRANCH   2   3
ENDBRANCH   1   2
BRANCH   1   7
HETATM    7  C   UNK N   1     -16.930  20.498 -10.104  0.00  0.00    -0.085 C 
HETATM    8  C   UNK N   1     -17.456  21.827  -9.600  0.00  0.00     0.043 C 
HETATM    9  C   UNK N   1     -17.122  20.075 -11.375  0.00  0.00     0.001 C 
BRANCH   9  10
HETATM   10  C   UNK N   1     -17.874  20.866 -12.417  0.00  0.00     0.191 C 
BRANCH  10  11
HETATM   11  O   UNK N   1     -17.400  20.566 -13.700  0.00  0.00    -0.397 OA
HETATM   12  H   UNK N   1     -16.757  21.282 -13.943  0.00  0.00     0.209 HD
ENDBRANCH  10  11
ENDBRANCH   9  10
ENDBRANCH   1   7
TORSDOF 5
ENDMDL
MODEL 6
REMARK VINA RESULT:      -4.4     20.922     22.105
REMARK  5 active torsions:
REMARK  status: ('A' for Active; 'I' for Inactive)
REMARK    1  A    between atoms: O_1  and  C_11 
REMARK    2  A    between atoms: C_2  and  C_3 
REMARK    3  A    between atoms: C_2  and  C_4 
REMARK    4  A    between atoms: C_3  and  C_5 
REMARK    5  A    between atoms: C_8  and  C_11 
ROOT
HETATM    1  C   UNK N   1     -18.439  23.256 -11.532  0.00  0.00     0.037 C 
ENDROOT
BRANCH   1   2
HETATM    2  C   UNK N   1     -19.324  22.749 -12.672  0.00  0.00     0.031 C 
BRANCH   2   3
HETATM    3  C   UNK N   1     -19.034  23.527 -13.933  0.00  0.00    -0.024 C 
HETATM    4  C   UNK N   1     -18.242  23.117 -14.957  0.00  0.00    -0.091 C 
HETATM    5  C   UNK N   1     -18.031  24.034 -16.135  0.00  0.00     0.042 C 
HETATM    6  C   UNK N   1     -17.569  21.764 -15.018  0.00  0.00     0.042 C 
ENDBRANCH   2   3
ENDBRANCH   1   2
BRANCH   1   7
HETATM    7  C   UNK N   1     -17.876  22.116 -10.705  0.00  0.00    -0.085 C 
HETATM    8  C   UNK N   1     -17.962  22.218  -9.195  0.00  0.00     0.043 C 
HETATM    9  C   UNK N   1     -17.326  21.050 -11.332  0.00  0.00     0.001 C 
BRANCH   9  10
HETATM   10  C   UNK N   1     -16.741  19.863 -10.609  0.00  0.00     0.191 C 
BRANCH  10  11
HETATM   11  O   UNK N   1     -15.344  19.957 -10.559  0.00  0.00    -0.397 OA
HETATM   12  H   UNK N   1     -15.073  20.603 -11.263  0.00  0.00     0.209 HD
ENDBRANCH  10  11
ENDBRANCH   9  10
ENDBRANCH   1   7
TORSDOF 5
ENDMDL
MODEL 7
REMARK VINA RESULT:      -4.4     40.849     43.293
REMARK  5 active torsions:
REMARK  status: ('A' for Active; 'I' for Inactive)
REMARK    1  A    between atoms: O_1  and  C_11 
REMARK    2  A    between atoms: C_2  and  C_3 
REMARK    3  A    between atoms: C_2  and  C_4 
REMARK    4  A    between atoms: C_3  and  C_5 
REMARK    5  A    between atoms: C_8  and  C_11 
ROOT
HETATM    1  C   UNK N   1     -35.666  -4.241  -7.945  0.00  0.00     0.037 C 
ENDROOT
BRANCH   1   2
HETATM    2  C   UNK N   1     -36.686  -4.374  -9.078  0.00  0.00     0.031 C 
BRANCH   2   3
HETATM    3  C   UNK N   1     -36.415  -5.632  -9.868  0.00  0.00    -0.024 C 
HETATM    4  C   UNK N   1     -35.921  -5.688 -11.131  0.00  0.00    -0.091 C 
HETATM    5  C   UNK N   1     -35.740  -7.032 -11.790  0.00  0.00     0.042 C 
HETATM    6  C   UNK N   1     -35.498  -4.475 -11.930  0.00  0.00     0.042 C 
ENDBRANCH   2   3
ENDBRANCH   1   2
BRANCH   1   7
HETATM    7  C   UNK N   1     -36.107  -3.230  -6.905  0.00  0.00    -0.085 C 
HETATM    8  C   UNK N   1     -35.669  -3.444  -5.469  0.00  0.00     0.043 C 
HETATM    9  C   UNK N   1     -36.867  -2.176  -7.284  0.00  0.00     0.001 C 
BRANCH   9  10
HETATM   10  C   UNK N   1     -37.358  -1.113  -6.334  0.00  0.00     0.191 C 
BRANCH  10  11
HETATM   11  O   UNK N   1     -37.608   0.083  -7.021  0.00  0.00    -0.397 OA
HETATM   12  H   UNK N   1     -37.629  -0.141  -7.988  0.00  0.00     0.209 HD
ENDBRANCH  10  11
ENDBRANCH   9  10
ENDBRANCH   1   7
TORSDOF 5
ENDMDL
MODEL 8
REMARK VINA RESULT:      -4.4     39.215     41.232
REMARK  5 active torsions:
REMARK  status: ('A' for Active; 'I' for Inactive)
REMARK    1  A    between atoms: O_1  and  C_11 
REMARK    2  A    between atoms: C_2  and  C_3 
REMARK    3  A    between atoms: C_2  and  C_4 
REMARK    4  A    between atoms: C_3  and  C_5 
REMARK    5  A    between atoms: C_8  and  C_11 
ROOT
HETATM    1  C   UNK N   1     -38.826  -1.248  -4.152  0.00  0.00     0.037 C 
ENDROOT
BRANCH   1   2
HETATM    2  C   UNK N   1     -37.305  -1.077  -4.162  0.00  0.00     0.031 C 
BRANCH   2   3
HETATM    3  C   UNK N   1     -36.723  -1.739  -5.389  0.00  0.00    -0.024 C 
HETATM    4  C   UNK N   1     -35.980  -2.875  -5.402  0.00  0.00    -0.091 C 
HETATM    5  C   UNK N   1     -35.445  -3.387  -6.716  0.00  0.00     0.042 C 
HETATM    6  C   UNK N   1     -35.671  -3.702  -4.173  0.00  0.00     0.042 C 
ENDBRANCH   2   3
ENDBRANCH   1   2
BRANCH   1   7
HETATM    7  C   UNK N   1     -39.519  -0.077  -3.482  0.00  0.00    -0.085 C 
HETATM    8  C   UNK N   1     -39.093   1.324  -3.872  0.00  0.00     0.043 C 
HETATM    9  C   UNK N   1     -40.490  -0.315  -2.570  0.00  0.00     0.001 C 
BRANCH   9  10
HETATM   10  C   UNK N   1     -41.245   0.773  -1.847  0.00  0.00     0.191 C 
BRANCH  10  11
HETATM   11  O   UNK N   1     -40.632   1.068  -0.623  0.00  0.00    -0.397 OA
HETATM   12  H   UNK N   1     -39.678   1.263  -0.819  0.00  0.00     0.209 HD
ENDBRANCH  10  11
ENDBRANCH   9  10
ENDBRANCH   1   7
TORSDOF 5
ENDMDL
MODEL 9
REMARK VINA RESULT:      -4.3     21.946     24.572
REMARK  5 active torsions:
REMARK  status: ('A' for Active; 'I' for Inactive)
REMARK    1  A    between atoms: O_1  and  C_11 
REMARK    2  A    between atoms: C_2  and  C_3 
REMARK    3  A    between atoms: C_2  and  C_4 
REMARK    4  A    between atoms: C_3  and  C_5 
REMARK    5  A    between atoms: C_8  and  C_11 
ROOT
HETATM    1  C   UNK N   1     -16.869  19.681  -7.989  0.00  0.00     0.037 C 
ENDROOT
BRANCH   1   2
HETATM    2  C   UNK N   1     -16.585  20.012  -9.456  0.00  0.00     0.031 C 
BRANCH   2   3
HETATM    3  C   UNK N   1     -17.177  21.357  -9.803  0.00  0.00    -0.024 C 
HETATM    4  C   UNK N   1     -17.778  21.683 -10.976  0.00  0.00    -0.091 C 
HETATM    5  C   UNK N   1     -18.289  23.088 -11.173  0.00  0.00     0.042 C 
HETATM    6  C   UNK N   1     -18.006  20.710 -12.111  0.00  0.00     0.042 C 
ENDBRANCH   2   3
ENDBRANCH   1   2
BRANCH   1   7
HETATM    7  C   UNK N   1     -15.705  18.960  -7.338  0.00  0.00    -0.085 C 
HETATM    8  C   UNK N   1     -14.664  18.326  -8.239  0.00  0.00     0.043 C 
HETATM    9  C   UNK N   1     -15.628  18.908  -5.988  0.00  0.00     0.001 C 
BRANCH   9  10
HETATM   10  C   UNK N   1     -14.514  18.221  -5.238  0.00  0.00     0.191 C 
BRANCH  10  11
HETATM   11  O   UNK N   1     -14.873  16.904  -4.921  0.00  0.00    -0.397 OA
HETATM   12  H   UNK N   1     -14.332  16.310  -5.504  0.00  0.00     0.209 HD
ENDBRANCH  10  11
ENDBRANCH   9  10
ENDBRANCH   1   7
TORSDOF 5
ENDMDL
