MODEL 1
REMARK VINA RESULT:      -4.8      0.000      0.000
REMARK  5 active torsions:
REMARK  status: ('A' for Active; 'I' for Inactive)
REMARK    1  A    between atoms: O_1  and  C_11 
REMARK    2  A    between atoms: C_2  and  C_3 
REMARK    3  A    between atoms: C_2  and  C_4 
REMARK    4  A    between atoms: C_3  and  C_5 
REMARK    5  A    between atoms: C_8  and  C_11 
ROOT
HETATM    1  C   UNK N   1     -16.866  19.636  -8.342  0.00  0.00     0.037 C 
ENDROOT
BRANCH   1   2
HETATM    2  C   UNK N   1     -16.218  20.460  -9.465  0.00  0.00     0.031 C 
BRANCH   2   3
HETATM    3  C   UNK N   1     -17.260  21.205 -10.274  0.00  0.00    -0.024 C 
HETATM    4  C   UNK N   1     -17.708  20.873 -11.515  0.00  0.00    -0.091 C 
HETATM    5  C   UNK N   1     -18.755  21.736 -12.171  0.00  0.00     0.042 C 
HETATM    6  C   UNK N   1     -17.217  19.687 -12.318  0.00  0.00     0.042 C 
ENDBRANCH   2   3
ENDBRANCH   1   2
BRANCH   1   7
HETATM    7  C   UNK N   1     -15.881  18.727  -7.611  0.00  0.00    -0.085 C 
HETATM    8  C   UNK N   1     -14.625  18.329  -8.349  0.00  0.00     0.043 C 
HETATM    9  C   UNK N   1     -16.063  18.270  -6.346  0.00  0.00     0.001 C 
BRANCH   9  10
HETATM   10  C   UNK N   1     -17.252  18.537  -5.448  0.00  0.00     0.191 C 
BRANCH  10  11
HETATM   11  O   UNK N   1     -18.337  17.761  -5.867  0.00  0.00    -0.397 OA
HETATM   12  H   UNK N   1     -18.062  17.329  -6.719  0.00  0.00     0.209 HD
ENDBRANCH  10  11
ENDBRANCH   9  10
ENDBRANCH   1   7
TORSDOF 5
ENDMDL
MODEL 2
REMARK VINA RESULT:      -4.8     29.412     30.032
REMARK  5 active torsions:
REMARK  status: ('A' for Active; 'I' for Inactive)
REMARK    1  A    between atoms: O_1  and  C_11 
REMARK    2  A    between atoms: C_2  and  C_3 
REMARK    3  A    between atoms: C_2  and  C_4 
REMARK    4  A    between atoms: C_3  and  C_5 
REMARK    5  A    between atoms: C_8  and  C_11 
ROOT
HETATM    1  C   UNK N   1     -36.592  -2.254  -6.008  0.00  0.00     0.037 C 
ENDROOT
BRANCH   1   2
HETATM    2  C   UNK N   1     -35.514  -3.180  -6.589  0.00  0.00     0.031 C 
BRANCH   2   3
HETATM    3  C   UNK N   1     -35.682  -3.352  -8.086  0.00  0.00    -0.024 C 
HETATM    4  C   UNK N   1     -36.280  -4.399  -8.715  0.00  0.00    -0.091 C 
HETATM    5  C   UNK N   1     -36.359  -4.402 -10.220  0.00  0.00     0.042 C 
HETATM    6  C   UNK N   1     -36.876  -5.600  -8.011  0.00  0.00     0.042 C 
ENDBRANCH   2   3
ENDBRANCH   1   2
BRANCH   1   7
HETATM    7  C   UNK N   1     -36.621  -2.241  -4.482  0.00  0.00    -0.085 C 
HETATM    8  C   UNK N   1     -35.837  -3.313  -3.763  0.00  0.00     0.043 C 
HETATM    9  C   UNK N   1     -37.295  -1.323  -3.742  0.00  0.00     0.001 C 
BRANCH   9  10
HETATM   10  C   UNK N   1     -38.146  -0.186  -4.264  0.00  0.00     0.191 C 
BRANCH  10  11
HETATM   11  O   UNK N   1     -38.049   0.906  -3.395  0.00  0.00    -0.397 OA
HETATM   12  H   UNK N   1     -38.519   1.661  -3.839  0.00  0.00     0.209 HD
ENDBRANCH  10  11
ENDBRANCH   9  10
ENDBRANCH   1   7
TORSDOF 5
ENDMDL
MODEL 3
REMARK VINA RESULT:      -4.7     25.175     27.422
REMARK  5 active torsions:
REMARK  status: ('A' for Active; 'I' for Inactive)
REMARK    1  A    between atoms: O_1  and  C_11 
REMARK    2  A    between atoms: C_2  and  C_3 
REMARK    3  A    between atoms: C_2  and  C_4 
REMARK    4  A    between atoms: C_3  and  C_5 
REMARK    5  A    between atoms: C_8  and  C_11 
ROOT
HETATM    1  C   UNK N   1     -31.264  42.037  -9.762  0.00  0.00     0.037 C 
ENDROOT
BRANCH   1   2
HETATM    2  C   UNK N   1     -30.222  42.974 -10.390  0.00  0.00     0.031 C 
BRANCH   2   3
HETATM    3  C   UNK N   1     -30.229  44.335  -9.723  0.00  0.00    -0.024 C 
HETATM    4  C   UNK N   1     -31.109  45.344  -9.959  0.00  0.00    -0.091 C 
HETATM    5  C   UNK N   1     -30.965  46.636  -9.197  0.00  0.00     0.042 C 
HETATM    6  C   UNK N   1     -32.243  45.281 -10.961  0.00  0.00     0.042 C 
ENDBRANCH   2   3
ENDBRANCH   1   2
BRANCH   1   7
HETATM    7  C   UNK N   1     -30.661  41.022  -8.794  0.00  0.00    -0.085 C 
HETATM    8  C   UNK N   1     -29.983  39.811  -9.391  0.00  0.00     0.043 C 
HETATM    9  C   UNK N   1     -30.689  41.149  -7.443  0.00  0.00     0.001 C 
BRANCH   9  10
HETATM   10  C   UNK N   1     -31.327  42.271  -6.652  0.00  0.00     0.191 C 
BRANCH  10  11
HETATM   11  O   UNK N   1     -30.370  43.254  -6.382  0.00  0.00    -0.397 OA
HETATM   12  H   UNK N   1     -29.967  43.021  -5.504  0.00  0.00     0.209 HD
ENDBRANCH  10  11
ENDBRANCH   9  10
ENDBRANCH   1   7
TORSDOF 5
ENDMDL
MODEL 4
REMARK VINA RESULT:      -4.6      4.209      7.508
REMARK  5 active torsions:
REMARK  status: ('A' for Active; 'I' for Inactive)
REMARK    1  A    between atoms: O_1  and  C_11 
REMARK    2  A    between atoms: C_2  and  C_3 
REMARK    3  A    between atoms: C_2  and  C_4 
REMARK    4  A    between atoms: C_3  and  C_5 
REMARK    5  A    between atoms: C_8  and  C_11 
ROOT
HETATM    1  C   UNK N   1     -18.360  23.148 -12.563  0.00  0.00     0.037 C 
ENDROOT
BRANCH   1   2
HETATM    2  C   UNK N   1     -18.905  21.815 -12.029  0.00  0.00     0.031 C 
BRANCH   2   3
HETATM    3  C   UNK N   1     -17.789  20.931 -11.510  0.00  0.00    -0.024 C 
HETATM    4  C   UNK N   1     -17.256  20.955 -10.260  0.00  0.00    -0.091 C 
HETATM    5  C   UNK N   1     -16.145  19.995  -9.918  0.00  0.00     0.042 C 
HETATM    6  C   UNK N   1     -17.686  21.900  -9.158  0.00  0.00     0.042 C 
ENDBRANCH   2   3
ENDBRANCH   1   2
BRANCH   1   7
HETATM    7  C   UNK N   1     -19.271  23.804 -13.597  0.00  0.00    -0.085 C 
HETATM    8  C   UNK N   1     -20.338  24.744 -13.087  0.00  0.00     0.043 C 
HETATM    9  C   UNK N   1     -19.171  23.601 -14.936  0.00  0.00     0.001 C 
BRANCH   9  10
HETATM   10  C   UNK N   1     -18.189  22.694 -15.644  0.00  0.00     0.191 C 
BRANCH  10  11
HETATM   11  O   UNK N   1     -17.023  23.409 -15.939  0.00  0.00    -0.397 OA
HETATM   12  H   UNK N   1     -17.313  24.248 -16.385  0.00  0.00     0.209 HD
ENDBRANCH  10  11
ENDBRANCH   9  10
ENDBRANCH   1   7
TORSDOF 5
ENDMDL
MODEL 5
REMARK VINA RESULT:      -4.6      2.494      5.615
REMARK  5 active torsions:
REMARK  status: ('A' for Active; 'I' for Inactive)
REMARK    1  A    between atoms: O_1  and  C_11 
REMARK    2  A    between atoms: C_2  and  C_3 
REMARK    3  A    between atoms: C_2  and  C_4 
REMARK    4  A    between atoms: C_3  and  C_5 
REMARK    5  A    between atoms: C_8  and  C_11 
ROOT
HETATM    1  C   UNK N   1     -17.569  21.459 -10.282  0.00  0.00     0.037 C 
ENDROOT
BRANCH   1   2
HETATM    2  C   UNK N   1     -16.404  20.727  -9.600  0.00  0.00     0.031 C 
BRANCH   2   3
HETATM    3  C   UNK N   1     -16.853  20.044  -8.323  0.00  0.00    -0.024 C 
HETATM    4  C   UNK N   1     -16.225  19.014  -7.696  0.00  0.00    -0.091 C 
HETATM    5  C   UNK N   1     -16.818  18.457  -6.427  0.00  0.00     0.042 C 
HETATM    6  C   UNK N   1     -14.953  18.354  -8.187  0.00  0.00     0.042 C 
ENDBRANCH   2   3
ENDBRANCH   1   2
BRANCH   1   7
HETATM    7  C   UNK N   1     -17.815  21.001 -11.718  0.00  0.00    -0.085 C 
HETATM    8  C   UNK N   1     -17.135  19.729 -12.167  0.00  0.00     0.043 C 
HETATM    9  C   UNK N   1     -18.609  21.660 -12.600  0.00  0.00     0.001 C 
BRANCH   9  10
HETATM   10  C   UNK N   1     -19.361  22.950 -12.355  0.00  0.00     0.191 C 
BRANCH  10  11
HETATM   11  O   UNK N   1     -20.625  22.659 -11.832  0.00  0.00    -0.397 OA
HETATM   12  H   UNK N   1     -20.565  22.809 -10.851  0.00  0.00     0.209 HD
ENDBRANCH  10  11
ENDBRANCH   9  10
ENDBRANCH   1   7
TORSDOF 5
ENDMDL
MODEL 6
REMARK VINA RESULT:      -4.5      3.017      4.510
REMARK  5 active torsions:
REMARK  status: ('A' for Active; 'I' for Inactive)
REMARK    1  A    between atoms: O_1  and  C_11 
REMARK    2  A    between atoms: C_2  and  C_3 
REMARK    3  A    between atoms: C_2  and  C_4 
REMARK    4  A    between atoms: C_3  and  C_5 
REMARK    5  A    between atoms: C_8  and  C_11 
ROOT
HETATM    1  C   UNK N   1     -17.507  22.482 -10.156  0.00  0.00     0.037 C 
ENDROOT
BRANCH   1   2
HETATM    2  C   UNK N   1     -18.903  22.636 -10.776  0.00  0.00     0.031 C 
BRANCH   2   3
HETATM    3  C   UNK N   1     -18.828  22.739 -12.287  0.00  0.00    -0.024 C 
HETATM    4  C   UNK N   1     -19.340  23.738 -13.053  0.00  0.00    -0.091 C 
HETATM    5  C   UNK N   1     -19.169  23.676 -14.550  0.00  0.00     0.042 C 
HETATM    6  C   UNK N   1     -20.101  24.933 -12.516  0.00  0.00     0.042 C 
ENDBRANCH   2   3
ENDBRANCH   1   2
BRANCH   1   7
HETATM    7  C   UNK N   1     -17.295  21.137  -9.466  0.00  0.00    -0.085 C 
HETATM    8  C   UNK N   1     -17.663  21.040  -8.005  0.00  0.00     0.043 C 
HETATM    9  C   UNK N   1     -16.809  20.032 -10.088  0.00  0.00     0.001 C 
BRANCH   9  10
HETATM   10  C   UNK N   1     -16.370  19.924 -11.532  0.00  0.00     0.191 C 
BRANCH  10  11
HETATM   11  O   UNK N   1     -17.444  19.489 -12.315  0.00  0.00    -0.397 OA
HETATM   12  H   UNK N   1     -17.631  18.552 -12.040  0.00  0.00     0.209 HD
ENDBRANCH  10  11
ENDBRANCH   9  10
ENDBRANCH   1   7
TORSDOF 5
ENDMDL
MODEL 7
REMARK VINA RESULT:      -4.5      1.844      2.328
REMARK  5 active torsions:
REMARK  status: ('A' for Active; 'I' for Inactive)
REMARK    1  A    between atoms: O_1  and  C_11 
REMARK    2  A    between atoms: C_2  and  C_3 
REMARK    3  A    between atoms: C_2  and  C_4 
REMARK    4  A    between atoms: C_3  and  C_5 
REMARK    5  A    between atoms: C_8  and  C_11 
ROOT
HETATM    1  C   UNK N   1     -16.563  18.920  -8.098  0.00  0.00     0.037 C 
ENDROOT
BRANCH   1   2
HETATM    2  C   UNK N   1     -15.760  19.616  -9.207  0.00  0.00     0.031 C 
BRANCH   2   3
HETATM    3  C   UNK N   1     -16.615  19.869 -10.432  0.00  0.00    -0.024 C 
HETATM    4  C   UNK N   1     -17.304  21.007 -10.714  0.00  0.00    -0.091 C 
HETATM    5  C   UNK N   1     -18.105  21.082 -11.989  0.00  0.00     0.042 C 
HETATM    6  C   UNK N   1     -17.344  22.231  -9.824  0.00  0.00     0.042 C 
ENDBRANCH   2   3
ENDBRANCH   1   2
BRANCH   1   7
HETATM    7  C   UNK N   1     -16.411  19.585  -6.732  0.00  0.00    -0.085 C 
HETATM    8  C   UNK N   1     -15.145  19.301  -5.958  0.00  0.00     0.043 C 
HETATM    9  C   UNK N   1     -17.335  20.416  -6.184  0.00  0.00     0.001 C 
BRANCH   9  10
HETATM   10  C   UNK N   1     -18.666  20.813  -6.784  0.00  0.00     0.191 C 
BRANCH  10  11
HETATM   11  O   UNK N   1     -19.238  21.833  -6.016  0.00  0.00    -0.397 OA
HETATM   12  H   UNK N   1     -19.296  21.485  -5.086  0.00  0.00     0.209 HD
ENDBRANCH  10  11
ENDBRANCH   9  10
ENDBRANCH   1   7
TORSDOF 5
ENDMDL
MODEL 8
REMARK VINA RESULT:      -4.4      2.484      5.837
REMARK  5 active torsions:
REMARK  status: ('A' for Active; 'I' for Inactive)
REMARK    1  A    between atoms: O_1  and  C_11 
REMARK    2  A    between atoms: C_2  and  C_3 
REMARK    3  A    between atoms: C_2  and  C_4 
REMARK    4  A    between atoms: C_3  and  C_5 
REMARK    5  A    between atoms: C_8  and  C_11 
ROOT
HETATM    1  C   UNK N   1     -16.673  19.744  -8.517  0.00  0.00     0.037 C 
ENDROOT
BRANCH   1   2
HETATM    2  C   UNK N   1     -16.701  20.024  -7.007  0.00  0.00     0.031 C 
BRANCH   2   3
HETATM    3  C   UNK N   1     -15.821  19.051  -6.248  0.00  0.00    -0.024 C 
HETATM    4  C   UNK N   1     -16.241  18.093  -5.380  0.00  0.00    -0.091 C 
HETATM    5  C   UNK N   1     -15.218  17.209  -4.712  0.00  0.00     0.042 C 
HETATM    6  C   UNK N   1     -17.687  17.843  -5.006  0.00  0.00     0.042 C 
ENDBRANCH   2   3
ENDBRANCH   1   2
BRANCH   1   7
HETATM    7  C   UNK N   1     -17.350  20.830  -9.348  0.00  0.00    -0.085 C 
HETATM    8  C   UNK N   1     -18.086  21.918  -8.603  0.00  0.00     0.043 C 
HETATM    9  C   UNK N   1     -17.318  20.880 -10.705  0.00  0.00     0.001 C 
BRANCH   9  10
HETATM   10  C   UNK N   1     -16.653  19.886 -11.633  0.00  0.00     0.191 C 
BRANCH  10  11
HETATM   11  O   UNK N   1     -17.545  19.528 -12.649  0.00  0.00    -0.397 OA
HETATM   12  H   UNK N   1     -17.432  20.200 -13.373  0.00  0.00     0.209 HD
ENDBRANCH  10  11
ENDBRANCH   9  10
ENDBRANCH   1   7
TORSDOF 5
ENDMDL
MODEL 9
REMARK VINA RESULT:      -4.4      3.556      6.716
REMARK  5 active torsions:
REMARK  status: ('A' for Active; 'I' for Inactive)
REMARK    1  A    between atoms: O_1  and  C_11 
REMARK    2  A    between atoms: C_2  and  C_3 
REMARK    3  A    between atoms: C_2  and  C_4 
REMARK    4  A    between atoms: C_3  and  C_5 
REMARK    5  A    between atoms: C_8  and  C_11 
ROOT
HETATM    1  C   UNK N   1     -19.169  22.263 -11.836  0.00  0.00     0.037 C 
ENDROOT
BRANCH   1   2
HETATM    2  C   UNK N   1     -18.140  22.555 -10.733  0.00  0.00     0.031 C 
BRANCH   2   3
HETATM    3  C   UNK N   1     -17.251  21.355 -10.476  0.00  0.00    -0.024 C 
HETATM    4  C   UNK N   1     -17.056  20.739  -9.279  0.00  0.00    -0.091 C 
HETATM    5  C   UNK N   1     -16.131  19.550  -9.210  0.00  0.00     0.042 C 
HETATM    6  C   UNK N   1     -17.694  21.167  -7.975  0.00  0.00     0.042 C 
ENDBRANCH   2   3
ENDBRANCH   1   2
BRANCH   1   7
HETATM    7  C   UNK N   1     -19.275  23.377 -12.875  0.00  0.00    -0.085 C 
HETATM    8  C   UNK N   1     -18.535  23.185 -14.177  0.00  0.00     0.043 C 
HETATM    9  C   UNK N   1     -20.000  24.512 -12.701  0.00  0.00     0.001 C 
BRANCH   9  10
HETATM   10  C   UNK N   1     -20.795  24.900 -11.474  0.00  0.00     0.191 C 
BRANCH  10  11
HETATM   11  O   UNK N   1     -20.215  26.025 -10.879  0.00  0.00    -0.397 OA
HETATM   12  H   UNK N   1     -20.830  26.307 -10.150  0.00  0.00     0.209 HD
ENDBRANCH  10  11
ENDBRANCH   9  10
ENDBRANCH   1   7
TORSDOF 5
ENDMDL
