MODEL 1
REMARK VINA RESULT:      -7.4      0.000      0.000
REMARK  7 active torsions:
REMARK  status: ('A' for Active; 'I' for Inactive)
REMARK    1  A    between atoms: O_2  and  C_8 
REMARK    2  A    between atoms: O_3  and  C_14 
REMARK    3  A    between atoms: O_4  and  C_19 
REMARK    4  A    between atoms: O_5  and  C_20 
REMARK    5  A    between atoms: O_6  and  C_21 
REMARK    6  A    between atoms: O_7  and  C_22 
REMARK    7  A    between atoms: C_9  and  C_12 
ROOT
HETATM    1  O   UNK N   1     -38.663  -2.750  -7.298  0.00  0.00    -0.338 OA
HETATM    2  C   UNK N   1     -36.480  -2.837  -6.339  0.00  0.00     0.156 C 
HETATM    3  C   UNK N   1     -37.993  -2.995  -6.113  0.00  0.00     0.191 C 
HETATM    4  C   UNK N   1     -36.023  -3.821  -7.434  0.00  0.00     0.079 C 
HETATM    5  C   UNK N   1     -36.972  -3.833  -8.613  0.00  0.00     0.011 A 
HETATM    6  C   UNK N   1     -38.265  -3.280  -8.478  0.00  0.00     0.081 A 
HETATM    7  C   UNK N   1     -36.591  -4.415  -9.834  0.00  0.00     0.077 A 
HETATM    8  C   UNK N   1     -39.149  -3.290  -9.559  0.00  0.00     0.074 A 
HETATM    9  C   UNK N   1     -37.490  -4.424 -10.913  0.00  0.00     0.073 A 
HETATM   10  C   UNK N   1     -38.766  -3.865 -10.777  0.00  0.00     0.071 A 
ENDROOT
BRANCH   3  11
HETATM   11  C   UNK N   1     -38.515  -2.051  -5.059  0.00  0.00    -0.021 A 
HETATM   12  C   UNK N   1     -39.341  -2.530  -4.032  0.00  0.00     0.049 A 
HETATM   13  C   UNK N   1     -39.833  -1.659  -3.053  0.00  0.00     0.102 A 
HETATM   14  C   UNK N   1     -39.497  -0.291  -3.096  0.00  0.00     0.132 A 
HETATM   15  C   UNK N   1     -38.673   0.191  -4.123  0.00  0.00     0.102 A 
HETATM   16  C   UNK N   1     -38.189  -0.684  -5.102  0.00  0.00     0.049 A 
BRANCH  13  17
HETATM   17  O   UNK N   1     -40.631  -2.129  -2.071  0.00  0.00    -0.358 OA
HETATM   18  H   UNK N   1     -40.396  -2.916  -1.560  0.00  0.00     0.218 HD
ENDBRANCH  13  17
BRANCH  14  19
HETATM   19  O   UNK N   1     -39.957   0.565  -2.160  0.00  0.00    -0.356 OA
HETATM   20  H   UNK N   1     -40.701   1.161  -2.325  0.00  0.00     0.218 HD
ENDBRANCH  14  19
BRANCH  15  21
HETATM   21  O   UNK N   1     -38.351   1.502  -4.163  0.00  0.00    -0.358 OA
HETATM   22  H   UNK N   1     -38.249   1.975  -5.001  0.00  0.00     0.218 HD
ENDBRANCH  15  21
ENDBRANCH   3  11
BRANCH   2  23
HETATM   23  O   UNK N   1     -35.780  -3.069  -5.144  0.00  0.00    -0.392 OA
HETATM   24  H   UNK N   1     -35.995  -2.319  -4.532  0.00  0.00     0.210 HD
ENDBRANCH   2  23
BRANCH   7  25
HETATM   25  O   UNK N   1     -35.359  -4.953  -9.970  0.00  0.00    -0.360 OA
HETATM   26  H   UNK N   1     -35.043  -5.294 -10.818  0.00  0.00     0.217 HD
ENDBRANCH   7  25
BRANCH  10  27
HETATM   27  O   UNK N   1     -39.620  -3.890 -11.821  0.00  0.00    -0.361 OA
HETATM   28  H   UNK N   1     -39.334  -4.161 -12.704  0.00  0.00     0.217 HD
ENDBRANCH  10  27
TORSDOF 7
ENDMDL
MODEL 2
REMARK VINA RESULT:      -7.4      0.064      1.773
REMARK  7 active torsions:
REMARK  status: ('A' for Active; 'I' for Inactive)
REMARK    1  A    between atoms: O_2  and  C_8 
REMARK    2  A    between atoms: O_3  and  C_14 
REMARK    3  A    between atoms: O_4  and  C_19 
REMARK    4  A    between atoms: O_5  and  C_20 
REMARK    5  A    between atoms: O_6  and  C_21 
REMARK    6  A    between atoms: O_7  and  C_22 
REMARK    7  A    between atoms: C_9  and  C_12 
ROOT
HETATM    1  O   UNK N   1     -38.715  -2.744  -7.266  0.00  0.00    -0.338 OA
HETATM    2  C   UNK N   1     -36.532  -2.821  -6.306  0.00  0.00     0.156 C 
HETATM    3  C   UNK N   1     -38.044  -2.982  -6.079  0.00  0.00     0.191 C 
HETATM    4  C   UNK N   1     -36.072  -3.809  -7.396  0.00  0.00     0.079 C 
HETATM    5  C   UNK N   1     -37.020  -3.830  -8.575  0.00  0.00     0.011 A 
HETATM    6  C   UNK N   1     -38.314  -3.280  -8.443  0.00  0.00     0.081 A 
HETATM    7  C   UNK N   1     -36.637  -4.418  -9.792  0.00  0.00     0.077 A 
HETATM    8  C   UNK N   1     -39.198  -3.298  -9.524  0.00  0.00     0.074 A 
HETATM    9  C   UNK N   1     -37.536  -4.435 -10.871  0.00  0.00     0.073 A 
HETATM   10  C   UNK N   1     -38.813  -3.877 -10.739  0.00  0.00     0.071 A 
ENDROOT
BRANCH   3  11
HETATM   11  C   UNK N   1     -38.569  -2.033  -5.031  0.00  0.00    -0.021 A 
HETATM   12  C   UNK N   1     -38.211  -0.678  -5.067  0.00  0.00     0.049 A 
HETATM   13  C   UNK N   1     -38.691   0.208  -4.095  0.00  0.00     0.102 A 
HETATM   14  C   UNK N   1     -39.540  -0.261  -3.073  0.00  0.00     0.132 A 
HETATM   15  C   UNK N   1     -39.898  -1.616  -3.034  0.00  0.00     0.102 A 
HETATM   16  C   UNK N   1     -39.410  -2.498  -4.005  0.00  0.00     0.049 A 
BRANCH  13  17
HETATM   17  O   UNK N   1     -38.337   1.511  -4.136  0.00  0.00    -0.358 OA
HETATM   18  H   UNK N   1     -37.420   1.792  -4.009  0.00  0.00     0.218 HD
ENDBRANCH  13  17
BRANCH  14  19
HETATM   19  O   UNK N   1     -40.017   0.577  -2.129  0.00  0.00    -0.356 OA
HETATM   20  H   UNK N   1     -40.098   1.530  -2.276  0.00  0.00     0.218 HD
ENDBRANCH  14  19
BRANCH  15  21
HETATM   21  O   UNK N   1     -40.712  -2.066  -2.054  0.00  0.00    -0.358 OA
HETATM   22  H   UNK N   1     -41.580  -1.670  -1.893  0.00  0.00     0.218 HD
ENDBRANCH  15  21
ENDBRANCH   3  11
BRANCH   2  23
HETATM   23  O   UNK N   1     -35.831  -3.045  -5.109  0.00  0.00    -0.392 OA
HETATM   24  H   UNK N   1     -34.987  -2.526  -5.167  0.00  0.00     0.210 HD
ENDBRANCH   2  23
BRANCH   7  25
HETATM   25  O   UNK N   1     -35.404  -4.953  -9.925  0.00  0.00    -0.360 OA
HETATM   26  H   UNK N   1     -34.936  -4.950 -10.771  0.00  0.00     0.217 HD
ENDBRANCH   7  25
BRANCH  10  27
HETATM   27  O   UNK N   1     -39.667  -3.910 -11.783  0.00  0.00    -0.361 OA
HETATM   28  H   UNK N   1     -39.930  -4.744 -12.197  0.00  0.00     0.217 HD
ENDBRANCH  10  27
TORSDOF 7
ENDMDL
MODEL 3
REMARK VINA RESULT:      -7.1     31.363     32.620
REMARK  7 active torsions:
REMARK  status: ('A' for Active; 'I' for Inactive)
REMARK    1  A    between atoms: O_2  and  C_8 
REMARK    2  A    between atoms: O_3  and  C_14 
REMARK    3  A    between atoms: O_4  and  C_19 
REMARK    4  A    between atoms: O_5  and  C_20 
REMARK    5  A    between atoms: O_6  and  C_21 
REMARK    6  A    between atoms: O_7  and  C_22 
REMARK    7  A    between atoms: C_9  and  C_12 
ROOT
HETATM    1  O   UNK N   1     -17.991  22.824 -12.499  0.00  0.00    -0.338 OA
HETATM    2  C   UNK N   1     -20.096  22.902 -11.378  0.00  0.00     0.156 C 
HETATM    3  C   UNK N   1     -18.572  23.080 -11.270  0.00  0.00     0.191 C 
HETATM    4  C   UNK N   1     -20.646  23.865 -12.448  0.00  0.00     0.079 C 
HETATM    5  C   UNK N   1     -19.790  23.869 -13.696  0.00  0.00     0.011 A 
HETATM    6  C   UNK N   1     -18.484  23.333 -13.653  0.00  0.00     0.081 A 
HETATM    7  C   UNK N   1     -20.270  24.430 -14.893  0.00  0.00     0.077 A 
HETATM    8  C   UNK N   1     -17.685  23.336 -14.798  0.00  0.00     0.074 A 
HETATM    9  C   UNK N   1     -19.455  24.432 -16.037  0.00  0.00     0.073 A 
HETATM   10  C   UNK N   1     -18.166  23.888 -15.991  0.00  0.00     0.071 A 
ENDROOT
BRANCH   3  11
HETATM   11  C   UNK N   1     -17.960  22.156 -10.246  0.00  0.00    -0.021 A 
HETATM   12  C   UNK N   1     -16.923  21.288 -10.614  0.00  0.00     0.049 A 
HETATM   13  C   UNK N   1     -16.352  20.425  -9.670  0.00  0.00     0.102 A 
HETATM   14  C   UNK N   1     -16.820  20.427  -8.342  0.00  0.00     0.132 A 
HETATM   15  C   UNK N   1     -17.859  21.294  -7.972  0.00  0.00     0.102 A 
HETATM   16  C   UNK N   1     -18.429  22.150  -8.921  0.00  0.00     0.049 A 
BRANCH  13  17
HETATM   17  O   UNK N   1     -15.357  19.589 -10.035  0.00  0.00    -0.358 OA
HETATM   18  H   UNK N   1     -15.145  18.797  -9.521  0.00  0.00     0.218 HD
ENDBRANCH  13  17
BRANCH  14  19
HETATM   19  O   UNK N   1     -16.282  19.607  -7.415  0.00  0.00    -0.356 OA
HETATM   20  H   UNK N   1     -16.815  19.186  -6.726  0.00  0.00     0.218 HD
ENDBRANCH  14  19
BRANCH  15  21
HETATM   21  O   UNK N   1     -18.307  21.297  -6.698  0.00  0.00    -0.358 OA
HETATM   22  H   UNK N   1     -18.529  20.477  -6.234  0.00  0.00     0.218 HD
ENDBRANCH  15  21
ENDBRANCH   3  11
BRANCH   2  23
HETATM   23  O   UNK N   1     -20.706  23.144 -10.136  0.00  0.00    -0.392 OA
HETATM   24  H   UNK N   1     -21.231  22.334  -9.909  0.00  0.00     0.210 HD
ENDBRANCH   2  23
BRANCH   7  25
HETATM   25  O   UNK N   1     -21.514  24.952 -14.942  0.00  0.00    -0.360 OA
HETATM   26  H   UNK N   1     -21.726  25.712 -15.500  0.00  0.00     0.217 HD
ENDBRANCH   7  25
BRANCH  10  27
HETATM   27  O   UNK N   1     -17.395  23.907 -17.097  0.00  0.00    -0.361 OA
HETATM   28  H   UNK N   1     -17.779  23.972 -17.983  0.00  0.00     0.217 HD
ENDBRANCH  10  27
TORSDOF 7
ENDMDL
MODEL 4
REMARK VINA RESULT:      -7.0     31.295     32.640
REMARK  7 active torsions:
REMARK  status: ('A' for Active; 'I' for Inactive)
REMARK    1  A    between atoms: O_2  and  C_8 
REMARK    2  A    between atoms: O_3  and  C_14 
REMARK    3  A    between atoms: O_4  and  C_19 
REMARK    4  A    between atoms: O_5  and  C_20 
REMARK    5  A    between atoms: O_6  and  C_21 
REMARK    6  A    between atoms: O_7  and  C_22 
REMARK    7  A    between atoms: C_9  and  C_12 
ROOT
HETATM    1  O   UNK N   1     -17.462  21.095 -11.115  0.00  0.00    -0.338 OA
HETATM    2  C   UNK N   1     -18.790  22.872 -10.236  0.00  0.00     0.156 C 
HETATM    3  C   UNK N   1     -18.643  21.787 -11.316  0.00  0.00     0.191 C 
HETATM    4  C   UNK N   1     -18.780  22.209  -8.844  0.00  0.00     0.079 C 
HETATM    5  C   UNK N   1     -17.696  21.160  -8.727  0.00  0.00     0.011 A 
HETATM    6  C   UNK N   1     -17.081  20.654  -9.893  0.00  0.00     0.081 A 
HETATM    7  C   UNK N   1     -17.315  20.661  -7.470  0.00  0.00     0.077 A 
HETATM    8  C   UNK N   1     -16.082  19.683  -9.795  0.00  0.00     0.074 A 
HETATM    9  C   UNK N   1     -16.314  19.680  -7.383  0.00  0.00     0.073 A 
HETATM   10  C   UNK N   1     -15.698  19.191  -8.542  0.00  0.00     0.071 A 
ENDROOT
BRANCH   3  11
HETATM   11  C   UNK N   1     -18.631  22.365 -12.709  0.00  0.00    -0.021 A 
HETATM   12  C   UNK N   1     -17.819  21.796 -13.700  0.00  0.00     0.049 A 
HETATM   13  C   UNK N   1     -17.799  22.330 -14.994  0.00  0.00     0.102 A 
HETATM   14  C   UNK N   1     -18.601  23.445 -15.307  0.00  0.00     0.132 A 
HETATM   15  C   UNK N   1     -19.413  24.018 -14.317  0.00  0.00     0.102 A 
HETATM   16  C   UNK N   1     -19.423  23.483 -13.024  0.00  0.00     0.049 A 
BRANCH  13  17
HETATM   17  O   UNK N   1     -17.010  21.777 -15.940  0.00  0.00    -0.358 OA
HETATM   18  H   UNK N   1     -16.864  22.208 -16.794  0.00  0.00     0.218 HD
ENDBRANCH  13  17
BRANCH  14  19
HETATM   19  O   UNK N   1     -18.601  23.973 -16.548  0.00  0.00    -0.356 OA
HETATM   20  H   UNK N   1     -19.093  23.575 -17.280  0.00  0.00     0.218 HD
ENDBRANCH  14  19
BRANCH  15  21
HETATM   21  O   UNK N   1     -20.182  25.087 -14.617  0.00  0.00    -0.358 OA
HETATM   22  H   UNK N   1     -20.957  25.321 -14.087  0.00  0.00     0.218 HD
ENDBRANCH  15  21
ENDBRANCH   3  11
BRANCH   2  23
HETATM   23  O   UNK N   1     -19.977  23.597 -10.429  0.00  0.00    -0.392 OA
HETATM   24  H   UNK N   1     -20.707  23.077 -10.002  0.00  0.00     0.210 HD
ENDBRANCH   2  23
BRANCH   7  25
HETATM   25  O   UNK N   1     -17.903  21.133  -6.349  0.00  0.00    -0.360 OA
HETATM   26  H   UNK N   1     -17.651  21.981  -5.960  0.00  0.00     0.217 HD
ENDBRANCH   7  25
BRANCH  10  27
HETATM   27  O   UNK N   1     -14.744  18.243  -8.441  0.00  0.00    -0.361 OA
HETATM   28  H   UNK N   1     -14.475  17.710  -9.202  0.00  0.00     0.217 HD
ENDBRANCH  10  27
TORSDOF 7
ENDMDL
MODEL 5
REMARK VINA RESULT:      -7.0     29.371     31.369
REMARK  7 active torsions:
REMARK  status: ('A' for Active; 'I' for Inactive)
REMARK    1  A    between atoms: O_2  and  C_8 
REMARK    2  A    between atoms: O_3  and  C_14 
REMARK    3  A    between atoms: O_4  and  C_19 
REMARK    4  A    between atoms: O_5  and  C_20 
REMARK    5  A    between atoms: O_6  and  C_21 
REMARK    6  A    between atoms: O_7  and  C_22 
REMARK    7  A    between atoms: C_9  and  C_12 
ROOT
HETATM    1  O   UNK N   1     -17.680  20.133  -7.605  0.00  0.00    -0.338 OA
HETATM    2  C   UNK N   1     -15.912  19.081  -8.813  0.00  0.00     0.156 C 
HETATM    3  C   UNK N   1     -16.660  20.389  -8.503  0.00  0.00     0.191 C 
HETATM    4  C   UNK N   1     -15.348  18.494  -7.505  0.00  0.00     0.079 C 
HETATM    5  C   UNK N   1     -16.361  18.544  -6.382  0.00  0.00     0.011 A 
HETATM    6  C   UNK N   1     -17.498  19.374  -6.499  0.00  0.00     0.081 A 
HETATM    7  C   UNK N   1     -16.168  17.794  -5.208  0.00  0.00     0.077 A 
HETATM    8  C   UNK N   1     -18.436  19.431  -5.466  0.00  0.00     0.074 A 
HETATM    9  C   UNK N   1     -17.116  17.862  -4.174  0.00  0.00     0.073 A 
HETATM   10  C   UNK N   1     -18.247  18.678  -4.300  0.00  0.00     0.071 A 
ENDROOT
BRANCH   3  11
HETATM   11  C   UNK N   1     -17.253  21.015  -9.741  0.00  0.00    -0.021 A 
HETATM   12  C   UNK N   1     -17.890  22.261  -9.661  0.00  0.00     0.049 A 
HETATM   13  C   UNK N   1     -18.447  22.848 -10.805  0.00  0.00     0.102 A 
HETATM   14  C   UNK N   1     -18.366  22.184 -12.045  0.00  0.00     0.132 A 
HETATM   15  C   UNK N   1     -17.730  20.937 -12.127  0.00  0.00     0.102 A 
HETATM   16  C   UNK N   1     -17.181  20.354 -10.979  0.00  0.00     0.049 A 
BRANCH  13  17
HETATM   17  O   UNK N   1     -19.063  24.046 -10.717  0.00  0.00    -0.358 OA
HETATM   18  H   UNK N   1     -18.788  24.798 -11.259  0.00  0.00     0.218 HD
ENDBRANCH  13  17
BRANCH  14  19
HETATM   19  O   UNK N   1     -18.891  22.733 -13.160  0.00  0.00    -0.356 OA
HETATM   20  H   UNK N   1     -19.658  22.353 -13.611  0.00  0.00     0.218 HD
ENDBRANCH  14  19
BRANCH  15  21
HETATM   21  O   UNK N   1     -17.652  20.302 -13.316  0.00  0.00    -0.358 OA
HETATM   22  H   UNK N   1     -17.055  19.554 -13.455  0.00  0.00     0.218 HD
ENDBRANCH  15  21
ENDBRANCH   3  11
BRANCH   2  23
HETATM   23  O   UNK N   1     -14.879  19.315  -9.735  0.00  0.00    -0.392 OA
HETATM   24  H   UNK N   1     -15.237  19.936 -10.420  0.00  0.00     0.210 HD
ENDBRANCH   2  23
BRANCH   7  25
HETATM   25  O   UNK N   1     -15.081  17.003  -5.084  0.00  0.00    -0.360 OA
HETATM   26  H   UNK N   1     -15.087  16.213  -4.527  0.00  0.00     0.217 HD
ENDBRANCH   7  25
BRANCH  10  27
HETATM   27  O   UNK N   1     -19.142  18.738  -3.294  0.00  0.00    -0.361 OA
HETATM   28  H   UNK N   1     -19.400  19.580  -2.894  0.00  0.00     0.217 HD
ENDBRANCH  10  27
TORSDOF 7
ENDMDL
MODEL 6
REMARK VINA RESULT:      -7.0     29.316     31.050
REMARK  7 active torsions:
REMARK  status: ('A' for Active; 'I' for Inactive)
REMARK    1  A    between atoms: O_2  and  C_8 
REMARK    2  A    between atoms: O_3  and  C_14 
REMARK    3  A    between atoms: O_4  and  C_19 
REMARK    4  A    between atoms: O_5  and  C_20 
REMARK    5  A    between atoms: O_6  and  C_21 
REMARK    6  A    between atoms: O_7  and  C_22 
REMARK    7  A    between atoms: C_9  and  C_12 
ROOT
HETATM    1  O   UNK N   1     -16.856  19.831  -8.949  0.00  0.00    -0.338 OA
HETATM    2  C   UNK N   1     -18.261  20.929  -7.364  0.00  0.00     0.156 C 
HETATM    3  C   UNK N   1     -16.866  20.358  -7.670  0.00  0.00     0.191 C 
HETATM    4  C   UNK N   1     -18.604  22.017  -8.401  0.00  0.00     0.079 C 
HETATM    5  C   UNK N   1     -18.250  21.586  -9.808  0.00  0.00     0.011 A 
HETATM    6  C   UNK N   1     -17.381  20.491 -10.008  0.00  0.00     0.081 A 
HETATM    7  C   UNK N   1     -18.753  22.284 -10.920  0.00  0.00     0.077 A 
HETATM    8  C   UNK N   1     -17.044  20.088 -11.302  0.00  0.00     0.074 A 
HETATM    9  C   UNK N   1     -18.404  21.873 -12.216  0.00  0.00     0.073 A 
HETATM   10  C   UNK N   1     -17.552  20.779 -12.409  0.00  0.00     0.071 A 
ENDROOT
BRANCH   3  11
HETATM   11  C   UNK N   1     -16.467  19.274  -6.699  0.00  0.00    -0.021 A 
HETATM   12  C   UNK N   1     -15.111  18.995  -6.477  0.00  0.00     0.049 A 
HETATM   13  C   UNK N   1     -14.733  17.988  -5.580  0.00  0.00     0.102 A 
HETATM   14  C   UNK N   1     -15.718  17.250  -4.894  0.00  0.00     0.132 A 
HETATM   15  C   UNK N   1     -17.075  17.527  -5.117  0.00  0.00     0.102 A 
HETATM   16  C   UNK N   1     -17.446  18.531  -6.018  0.00  0.00     0.049 A 
BRANCH  13  17
HETATM   17  O   UNK N   1     -13.425  17.722  -5.376  0.00  0.00    -0.358 OA
HETATM   18  H   UNK N   1     -12.985  16.976  -5.807  0.00  0.00     0.218 HD
ENDBRANCH  13  17
BRANCH  14  19
HETATM   19  O   UNK N   1     -15.376  16.279  -4.023  0.00  0.00    -0.356 OA
HETATM   20  H   UNK N   1     -15.844  16.146  -3.186  0.00  0.00     0.218 HD
ENDBRANCH  14  19
BRANCH  15  21
HETATM   21  O   UNK N   1     -18.019  16.821  -4.458  0.00  0.00    -0.358 OA
HETATM   22  H   UNK N   1     -18.544  17.213  -3.746  0.00  0.00     0.218 HD
ENDBRANCH  15  21
ENDBRANCH   3  11
BRANCH   2  23
HETATM   23  O   UNK N   1     -18.298  21.459  -6.064  0.00  0.00    -0.392 OA
HETATM   24  H   UNK N   1     -17.359  21.627  -5.793  0.00  0.00     0.210 HD
ENDBRANCH   2  23
BRANCH   7  25
HETATM   25  O   UNK N   1     -19.578  23.337 -10.738  0.00  0.00    -0.360 OA
HETATM   26  H   UNK N   1     -19.474  23.944  -9.992  0.00  0.00     0.217 HD
ENDBRANCH   7  25
BRANCH  10  27
HETATM   27  O   UNK N   1     -17.220  20.404 -13.662  0.00  0.00    -0.361 OA
HETATM   28  H   UNK N   1     -16.328  20.103 -13.882  0.00  0.00     0.217 HD
ENDBRANCH  10  27
TORSDOF 7
ENDMDL
MODEL 7
REMARK VINA RESULT:      -6.9     31.408     33.126
REMARK  7 active torsions:
REMARK  status: ('A' for Active; 'I' for Inactive)
REMARK    1  A    between atoms: O_2  and  C_8 
REMARK    2  A    between atoms: O_3  and  C_14 
REMARK    3  A    between atoms: O_4  and  C_19 
REMARK    4  A    between atoms: O_5  and  C_20 
REMARK    5  A    between atoms: O_6  and  C_21 
REMARK    6  A    between atoms: O_7  and  C_22 
REMARK    7  A    between atoms: C_9  and  C_12 
ROOT
HETATM    1  O   UNK N   1     -17.930  21.978 -11.972  0.00  0.00    -0.338 OA
HETATM    2  C   UNK N   1     -19.399  23.643 -11.101  0.00  0.00     0.156 C 
HETATM    3  C   UNK N   1     -19.128  22.623 -12.220  0.00  0.00     0.191 C 
HETATM    4  C   UNK N   1     -19.448  22.912  -9.745  0.00  0.00     0.079 C 
HETATM    5  C   UNK N   1     -18.323  21.910  -9.605  0.00  0.00     0.011 A 
HETATM    6  C   UNK N   1     -17.607  21.493 -10.749  0.00  0.00     0.081 A 
HETATM    7  C   UNK N   1     -18.000  21.365  -8.350  0.00  0.00     0.077 A 
HETATM    8  C   UNK N   1     -16.571  20.566 -10.631  0.00  0.00     0.074 A 
HETATM    9  C   UNK N   1     -16.959  20.429  -8.243  0.00  0.00     0.073 A 
HETATM   10  C   UNK N   1     -16.245  20.029  -9.379  0.00  0.00     0.071 A 
ENDROOT
BRANCH   3  11
HETATM   11  C   UNK N   1     -19.054  23.272 -13.579  0.00  0.00    -0.021 A 
HETATM   12  C   UNK N   1     -20.099  24.095 -14.023  0.00  0.00     0.049 A 
HETATM   13  C   UNK N   1     -20.039  24.698 -15.286  0.00  0.00     0.102 A 
HETATM   14  C   UNK N   1     -18.924  24.479 -16.117  0.00  0.00     0.132 A 
HETATM   15  C   UNK N   1     -17.878  23.655 -15.677  0.00  0.00     0.102 A 
HETATM   16  C   UNK N   1     -17.947  23.051 -14.416  0.00  0.00     0.049 A 
BRANCH  13  17
HETATM   17  O   UNK N   1     -21.053  25.485 -15.706  0.00  0.00    -0.358 OA
HETATM   18  H   UNK N   1     -21.892  25.531 -15.227  0.00  0.00     0.218 HD
ENDBRANCH  13  17
BRANCH  14  19
HETATM   19  O   UNK N   1     -18.844  25.054 -17.336  0.00  0.00    -0.356 OA
HETATM   20  H   UNK N   1     -18.450  24.602 -18.095  0.00  0.00     0.218 HD
ENDBRANCH  14  19
BRANCH  15  21
HETATM   21  O   UNK N   1     -16.808  23.446 -16.474  0.00  0.00    -0.358 OA
HETATM   22  H   UNK N   1     -16.901  23.079 -17.364  0.00  0.00     0.218 HD
ENDBRANCH  15  21
ENDBRANCH   3  11
BRANCH   2  23
HETATM   23  O   UNK N   1     -20.606  24.321 -11.339  0.00  0.00    -0.392 OA
HETATM   24  H   UNK N   1     -20.552  25.187 -10.858  0.00  0.00     0.210 HD
ENDBRANCH   2  23
BRANCH   7  25
HETATM   25  O   UNK N   1     -18.683  21.751  -7.251  0.00  0.00    -0.360 OA
HETATM   26  H   UNK N   1     -19.562  21.403  -7.049  0.00  0.00     0.217 HD
ENDBRANCH   7  25
BRANCH  10  27
HETATM   27  O   UNK N   1     -15.254  19.122  -9.260  0.00  0.00    -0.361 OA
HETATM   28  H   UNK N   1     -15.122  18.425  -9.917  0.00  0.00     0.217 HD
ENDBRANCH  10  27
TORSDOF 7
ENDMDL
MODEL 8
REMARK VINA RESULT:      -6.8     29.457     31.491
REMARK  7 active torsions:
REMARK  status: ('A' for Active; 'I' for Inactive)
REMARK    1  A    between atoms: O_2  and  C_8 
REMARK    2  A    between atoms: O_3  and  C_14 
REMARK    3  A    between atoms: O_4  and  C_19 
REMARK    4  A    between atoms: O_5  and  C_20 
REMARK    5  A    between atoms: O_6  and  C_21 
REMARK    6  A    between atoms: O_7  and  C_22 
REMARK    7  A    between atoms: C_9  and  C_12 
ROOT
HETATM    1  O   UNK N   1     -14.827  18.380  -5.852  0.00  0.00    -0.338 OA
HETATM    2  C   UNK N   1     -17.143  18.066  -5.368  0.00  0.00     0.156 C 
HETATM    3  C   UNK N   1     -16.044  18.091  -6.444  0.00  0.00     0.191 C 
HETATM    4  C   UNK N   1     -16.791  17.007  -4.305  0.00  0.00     0.079 C 
HETATM    5  C   UNK N   1     -15.334  17.073  -3.903  0.00  0.00     0.011 A 
HETATM    6  C   UNK N   1     -14.414  17.775  -4.713  0.00  0.00     0.081 A 
HETATM    7  C   UNK N   1     -14.879  16.418  -2.746  0.00  0.00     0.077 A 
HETATM    8  C   UNK N   1     -13.067  17.839  -4.353  0.00  0.00     0.074 A 
HETATM    9  C   UNK N   1     -13.521  16.484  -2.396  0.00  0.00     0.073 A 
HETATM   10  C   UNK N   1     -12.615  17.191  -3.196  0.00  0.00     0.071 A 
ENDROOT
BRANCH   3  11
HETATM   11  C   UNK N   1     -16.315  19.118  -7.515  0.00  0.00    -0.021 A 
HETATM   12  C   UNK N   1     -15.698  19.005  -8.769  0.00  0.00     0.049 A 
HETATM   13  C   UNK N   1     -15.942  19.957  -9.766  0.00  0.00     0.102 A 
HETATM   14  C   UNK N   1     -16.813  21.035  -9.513  0.00  0.00     0.132 A 
HETATM   15  C   UNK N   1     -17.429  21.150  -8.258  0.00  0.00     0.102 A 
HETATM   16  C   UNK N   1     -17.177  20.199  -7.263  0.00  0.00     0.049 A 
BRANCH  13  17
HETATM   17  O   UNK N   1     -15.340  19.843 -10.969  0.00  0.00    -0.358 OA
HETATM   18  H   UNK N   1     -15.842  19.637 -11.770  0.00  0.00     0.218 HD
ENDBRANCH  13  17
BRANCH  14  19
HETATM   19  O   UNK N   1     -17.065  21.961 -10.461  0.00  0.00    -0.356 OA
HETATM   20  H   UNK N   1     -16.433  22.165 -11.165  0.00  0.00     0.218 HD
ENDBRANCH  14  19
BRANCH  15  21
HETATM   21  O   UNK N   1     -18.265  22.183  -8.015  0.00  0.00    -0.358 OA
HETATM   22  H   UNK N   1     -17.964  22.987  -7.568  0.00  0.00     0.218 HD
ENDBRANCH  15  21
ENDBRANCH   3  11
BRANCH   2  23
HETATM   23  O   UNK N   1     -18.390  17.787  -5.949  0.00  0.00    -0.392 OA
HETATM   24  H   UNK N   1     -19.021  18.482  -5.629  0.00  0.00     0.210 HD
ENDBRANCH   2  23
BRANCH   7  25
HETATM   25  O   UNK N   1     -15.749  15.737  -1.969  0.00  0.00    -0.360 OA
HETATM   26  H   UNK N   1     -15.864  14.780  -2.050  0.00  0.00     0.217 HD
ENDBRANCH   7  25
BRANCH  10  27
HETATM   27  O   UNK N   1     -11.313  17.237  -2.849  0.00  0.00    -0.361 OA
HETATM   28  H   UNK N   1     -10.691  16.547  -3.120  0.00  0.00     0.217 HD
ENDBRANCH  10  27
TORSDOF 7
ENDMDL
MODEL 9
REMARK VINA RESULT:      -6.8     28.553     30.384
REMARK  7 active torsions:
REMARK  status: ('A' for Active; 'I' for Inactive)
REMARK    1  A    between atoms: O_2  and  C_8 
REMARK    2  A    between atoms: O_3  and  C_14 
REMARK    3  A    between atoms: O_4  and  C_19 
REMARK    4  A    between atoms: O_5  and  C_20 
REMARK    5  A    between atoms: O_6  and  C_21 
REMARK    6  A    between atoms: O_7  and  C_22 
REMARK    7  A    between atoms: C_9  and  C_12 
ROOT
HETATM    1  O   UNK N   1     -16.660  19.175  -6.494  0.00  0.00    -0.338 OA
HETATM    2  C   UNK N   1     -18.672  20.136  -5.645  0.00  0.00     0.156 C 
HETATM    3  C   UNK N   1     -17.231  19.690  -5.345  0.00  0.00     0.191 C 
HETATM    4  C   UNK N   1     -18.655  21.196  -6.764  0.00  0.00     0.079 C 
HETATM    5  C   UNK N   1     -17.727  20.808  -7.894  0.00  0.00     0.011 A 
HETATM    6  C   UNK N   1     -16.764  19.794  -7.695  0.00  0.00     0.081 A 
HETATM    7  C   UNK N   1     -17.792  21.467  -9.134  0.00  0.00     0.077 A 
HETATM    8  C   UNK N   1     -15.900  19.432  -8.730  0.00  0.00     0.074 A 
HETATM    9  C   UNK N   1     -16.915  21.098 -10.167  0.00  0.00     0.073 A 
HETATM   10  C   UNK N   1     -15.971  20.084  -9.967  0.00  0.00     0.071 A 
ENDROOT
BRANCH   3  11
HETATM   11  C   UNK N   1     -17.171  18.639  -4.264  0.00  0.00    -0.021 A 
HETATM   12  C   UNK N   1     -17.697  17.361  -4.498  0.00  0.00     0.049 A 
HETATM   13  C   UNK N   1     -17.649  16.381  -3.499  0.00  0.00     0.102 A 
HETATM   14  C   UNK N   1     -17.069  16.678  -2.250  0.00  0.00     0.132 A 
HETATM   15  C   UNK N   1     -16.545  17.957  -2.013  0.00  0.00     0.102 A 
HETATM   16  C   UNK N   1     -16.601  18.934  -3.014  0.00  0.00     0.049 A 
BRANCH  13  17
HETATM   17  O   UNK N   1     -18.161  15.154  -3.732  0.00  0.00    -0.358 OA
HETATM   18  H   UNK N   1     -17.722  14.525  -4.322  0.00  0.00     0.218 HD
ENDBRANCH  13  17
BRANCH  14  19
HETATM   19  O   UNK N   1     -17.008  15.748  -1.275  0.00  0.00    -0.356 OA
HETATM   20  H   UNK N   1     -16.836  14.814  -1.461  0.00  0.00     0.218 HD
ENDBRANCH  14  19
BRANCH  15  21
HETATM   21  O   UNK N   1     -15.988  18.242  -0.816  0.00  0.00    -0.358 OA
HETATM   22  H   UNK N   1     -16.528  18.464  -0.044  0.00  0.00     0.218 HD
ENDBRANCH  15  21
ENDBRANCH   3  11
BRANCH   2  23
HETATM   23  O   UNK N   1     -19.277  20.650  -4.487  0.00  0.00    -0.392 OA
HETATM   24  H   UNK N   1     -19.326  19.908  -3.831  0.00  0.00     0.210 HD
ENDBRANCH   2  23
BRANCH   7  25
HETATM   25  O   UNK N   1     -18.704  22.443  -9.332  0.00  0.00    -0.360 OA
HETATM   26  H   UNK N   1     -19.619  22.355  -9.030  0.00  0.00     0.217 HD
ENDBRANCH   7  25
BRANCH  10  27
HETATM   27  O   UNK N   1     -15.130  19.749 -10.967  0.00  0.00    -0.361 OA
HETATM   28  H   UNK N   1     -14.931  20.361 -11.689  0.00  0.00     0.217 HD
ENDBRANCH  10  27
TORSDOF 7
ENDMDL
