MODEL 1
REMARK VINA RESULT:      -5.6      0.000      0.000
REMARK  2 active torsions:
REMARK  status: ('A' for Active; 'I' for Inactive)
REMARK    1  A    between atoms: O_1  and  C_6 
REMARK    2  A    between atoms: C_2  and  C_3 
ROOT
HETATM    1  C   UNK N   1     -16.894  20.815  -9.602  0.00  0.00    -0.022 A 
HETATM    2  C   UNK N   1     -15.846  19.864  -9.797  0.00  0.00     0.072 A 
HETATM    3  C   UNK N   1     -17.529  20.863  -8.341  0.00  0.00     0.011 A 
HETATM    4  C   UNK N   1     -16.111  19.088  -7.501  0.00  0.00    -0.059 A 
HETATM    5  C   UNK N   1     -15.468  19.025  -8.741  0.00  0.00     0.043 A 
HETATM    6  C   UNK N   1     -17.147  20.007  -7.309  0.00  0.00     0.007 A 
HETATM    7  C   UNK N   1     -15.686  18.173  -6.391  0.00  0.00     0.048 C 
ENDROOT
BRANCH   1   8
HETATM    8  C   UNK N   1     -17.352  21.788 -10.691  0.00  0.00     0.013 C 
HETATM    9  C   UNK N   1     -18.237  22.892 -10.095  0.00  0.00     0.015 C 
HETATM   10  C   UNK N   1     -18.088  21.048 -11.816  0.00  0.00     0.015 C 
ENDBRANCH   1   8
BRANCH   2  11
HETATM   11  O   UNK N   1     -15.184  19.720 -10.969  0.00  0.00    -0.360 OA
HETATM   12  H   UNK N   1     -15.590  19.646 -11.838  0.00  0.00     0.217 HD
ENDBRANCH   2  11
TORSDOF 2
ENDMDL
MODEL 2
REMARK VINA RESULT:      -5.4      1.144      4.145
REMARK  2 active torsions:
REMARK  status: ('A' for Active; 'I' for Inactive)
REMARK    1  A    between atoms: O_1  and  C_6 
REMARK    2  A    between atoms: C_2  and  C_3 
ROOT
HETATM    1  C   UNK N   1     -16.854  20.012  -7.928  0.00  0.00    -0.022 A 
HETATM    2  C   UNK N   1     -16.258  20.172  -9.216  0.00  0.00     0.072 A 
HETATM    3  C   UNK N   1     -17.897  20.890  -7.558  0.00  0.00     0.011 A 
HETATM    4  C   UNK N   1     -17.762  22.032  -9.690  0.00  0.00    -0.059 A 
HETATM    5  C   UNK N   1     -16.728  21.173 -10.077  0.00  0.00     0.043 A 
HETATM    6  C   UNK N   1     -18.338  21.890  -8.425  0.00  0.00     0.007 A 
HETATM    7  C   UNK N   1     -18.240  23.097 -10.632  0.00  0.00     0.048 C 
ENDROOT
BRANCH   1   8
HETATM    8  C   UNK N   1     -16.421  18.929  -6.936  0.00  0.00     0.013 C 
HETATM    9  C   UNK N   1     -17.623  18.429  -6.121  0.00  0.00     0.015 C 
HETATM   10  C   UNK N   1     -15.310  19.442  -6.011  0.00  0.00     0.015 C 
ENDBRANCH   1   8
BRANCH   2  11
HETATM   11  O   UNK N   1     -15.241  19.399  -9.664  0.00  0.00    -0.360 OA
HETATM   12  H   UNK N   1     -14.994  19.274 -10.585  0.00  0.00     0.217 HD
ENDBRANCH   2  11
TORSDOF 2
ENDMDL
MODEL 3
REMARK VINA RESULT:      -5.3      1.745      2.687
REMARK  2 active torsions:
REMARK  status: ('A' for Active; 'I' for Inactive)
REMARK    1  A    between atoms: O_1  and  C_6 
REMARK    2  A    between atoms: C_2  and  C_3 
ROOT
HETATM    1  C   UNK N   1     -18.308  21.542 -11.380  0.00  0.00    -0.022 A 
HETATM    2  C   UNK N   1     -17.492  20.520 -11.955  0.00  0.00     0.072 A 
HETATM    3  C   UNK N   1     -18.194  21.791  -9.994  0.00  0.00     0.011 A 
HETATM    4  C   UNK N   1     -16.502  20.072  -9.772  0.00  0.00    -0.059 A 
HETATM    5  C   UNK N   1     -16.598  19.810 -11.143  0.00  0.00     0.043 A 
HETATM    6  C   UNK N   1     -17.308  21.061  -9.202  0.00  0.00     0.007 A 
HETATM    7  C   UNK N   1     -15.537  19.291  -8.929  0.00  0.00     0.048 C 
ENDROOT
BRANCH   1   8
HETATM    8  C   UNK N   1     -19.291  22.384 -12.197  0.00  0.00     0.013 C 
HETATM    9  C   UNK N   1     -18.548  23.465 -12.994  0.00  0.00     0.015 C 
HETATM   10  C   UNK N   1     -20.361  23.012 -11.293  0.00  0.00     0.015 C 
ENDBRANCH   1   8
BRANCH   2  11
HETATM   11  O   UNK N   1     -17.535  20.187 -13.266  0.00  0.00    -0.360 OA
HETATM   12  H   UNK N   1     -16.979  19.531 -13.697  0.00  0.00     0.217 HD
ENDBRANCH   2  11
TORSDOF 2
ENDMDL
MODEL 4
REMARK VINA RESULT:      -5.3      1.947      4.630
REMARK  2 active torsions:
REMARK  status: ('A' for Active; 'I' for Inactive)
REMARK    1  A    between atoms: O_1  and  C_6 
REMARK    2  A    between atoms: C_2  and  C_3 
ROOT
HETATM    1  C   UNK N   1     -16.785  20.125  -8.157  0.00  0.00    -0.022 A 
HETATM    2  C   UNK N   1     -17.756  21.153  -7.950  0.00  0.00     0.072 A 
HETATM    3  C   UNK N   1     -16.350  19.870  -9.476  0.00  0.00     0.011 A 
HETATM    4  C   UNK N   1     -17.788  21.614 -10.344  0.00  0.00    -0.059 A 
HETATM    5  C   UNK N   1     -18.233  21.884  -9.046  0.00  0.00     0.043 A 
HETATM    6  C   UNK N   1     -16.850  20.600 -10.554  0.00  0.00     0.007 A 
HETATM    7  C   UNK N   1     -18.322  22.412 -11.498  0.00  0.00     0.048 C 
ENDROOT
BRANCH   1   8
HETATM    8  C   UNK N   1     -16.191  19.296  -7.015  0.00  0.00     0.013 C 
HETATM    9  C   UNK N   1     -15.010  18.452  -7.516  0.00  0.00     0.015 C 
HETATM   10  C   UNK N   1     -17.260  18.408  -6.366  0.00  0.00     0.015 C 
ENDBRANCH   1   8
BRANCH   2  11
HETATM   11  O   UNK N   1     -18.256  21.466  -6.732  0.00  0.00    -0.360 OA
HETATM   12  H   UNK N   1     -17.739  21.611  -5.933  0.00  0.00     0.217 HD
ENDBRANCH   2  11
TORSDOF 2
ENDMDL
MODEL 5
REMARK VINA RESULT:      -5.2      1.767      2.576
REMARK  2 active torsions:
REMARK  status: ('A' for Active; 'I' for Inactive)
REMARK    1  A    between atoms: O_1  and  C_6 
REMARK    2  A    between atoms: C_2  and  C_3 
ROOT
HETATM    1  C   UNK N   1     -16.801  20.185  -8.880  0.00  0.00    -0.022 A 
HETATM    2  C   UNK N   1     -17.163  20.462  -7.526  0.00  0.00     0.072 A 
HETATM    3  C   UNK N   1     -15.782  19.237  -9.121  0.00  0.00     0.011 A 
HETATM    4  C   UNK N   1     -15.511  18.847  -6.746  0.00  0.00    -0.059 A 
HETATM    5  C   UNK N   1     -16.517  19.782  -6.484  0.00  0.00     0.043 A 
HETATM    6  C   UNK N   1     -15.143  18.583  -8.068  0.00  0.00     0.007 A 
HETATM    7  C   UNK N   1     -14.836  18.138  -5.608  0.00  0.00     0.048 C 
ENDROOT
BRANCH   1   8
HETATM    8  C   UNK N   1     -17.472  20.861 -10.078  0.00  0.00     0.013 C 
HETATM    9  C   UNK N   1     -17.089  20.152 -11.385  0.00  0.00     0.015 C 
HETATM   10  C   UNK N   1     -17.113  22.351 -10.141  0.00  0.00     0.015 C 
ENDBRANCH   1   8
BRANCH   2  11
HETATM   11  O   UNK N   1     -18.110  21.365  -7.181  0.00  0.00    -0.360 OA
HETATM   12  H   UNK N   1     -17.945  22.250  -6.841  0.00  0.00     0.217 HD
ENDBRANCH   2  11
TORSDOF 2
ENDMDL
MODEL 6
REMARK VINA RESULT:      -5.2      1.628      4.728
REMARK  2 active torsions:
REMARK  status: ('A' for Active; 'I' for Inactive)
REMARK    1  A    between atoms: O_1  and  C_6 
REMARK    2  A    between atoms: C_2  and  C_3 
ROOT
HETATM    1  C   UNK N   1     -17.543  21.036 -10.573  0.00  0.00    -0.022 A 
HETATM    2  C   UNK N   1     -17.942  20.821 -11.928  0.00  0.00     0.072 A 
HETATM    3  C   UNK N   1     -17.797  22.298  -9.992  0.00  0.00     0.011 A 
HETATM    4  C   UNK N   1     -18.823  23.092 -12.037  0.00  0.00    -0.059 A 
HETATM    5  C   UNK N   1     -18.582  21.850 -12.632  0.00  0.00     0.043 A 
HETATM    6  C   UNK N   1     -18.422  23.312 -10.717  0.00  0.00     0.007 A 
HETATM    7  C   UNK N   1     -19.508  24.175 -12.819  0.00  0.00     0.048 C 
ENDROOT
BRANCH   1   8
HETATM    8  C   UNK N   1     -16.863  19.960  -9.722  0.00  0.00     0.013 C 
HETATM    9  C   UNK N   1     -16.884  20.350  -8.237  0.00  0.00     0.015 C 
HETATM   10  C   UNK N   1     -15.427  19.708 -10.199  0.00  0.00     0.015 C 
ENDBRANCH   1   8
BRANCH   2  11
HETATM   11  O   UNK N   1     -17.730  19.659 -12.588  0.00  0.00    -0.360 OA
HETATM   12  H   UNK N   1     -18.178  18.825 -12.415  0.00  0.00     0.217 HD
ENDBRANCH   2  11
TORSDOF 2
ENDMDL
MODEL 7
REMARK VINA RESULT:      -5.2     24.307     26.869
REMARK  2 active torsions:
REMARK  status: ('A' for Active; 'I' for Inactive)
REMARK    1  A    between atoms: O_1  and  C_6 
REMARK    2  A    between atoms: C_2  and  C_3 
ROOT
HETATM    1  C   UNK N   1     -30.845  43.689  -8.571  0.00  0.00    -0.022 A 
HETATM    2  C   UNK N   1     -30.616  42.806  -7.472  0.00  0.00     0.072 A 
HETATM    3  C   UNK N   1     -30.788  43.160  -9.880  0.00  0.00     0.011 A 
HETATM    4  C   UNK N   1     -30.308  40.947  -9.020  0.00  0.00    -0.059 A 
HETATM    5  C   UNK N   1     -30.361  41.450  -7.716  0.00  0.00     0.043 A 
HETATM    6  C   UNK N   1     -30.517  41.809 -10.099  0.00  0.00     0.007 A 
HETATM    7  C   UNK N   1     -30.027  39.490  -9.248  0.00  0.00     0.048 C 
ENDROOT
BRANCH   1   8
HETATM    8  C   UNK N   1     -31.158  45.177  -8.396  0.00  0.00     0.013 C 
HETATM    9  C   UNK N   1     -32.656  45.389  -8.133  0.00  0.00     0.015 C 
HETATM   10  C   UNK N   1     -30.700  45.983  -9.619  0.00  0.00     0.015 C 
ENDBRANCH   1   8
BRANCH   2  11
HETATM   11  O   UNK N   1     -30.628  43.211  -6.181  0.00  0.00    -0.360 OA
HETATM   12  H   UNK N   1     -29.957  43.755  -5.757  0.00  0.00     0.217 HD
ENDBRANCH   2  11
TORSDOF 2
ENDMDL
MODEL 8
REMARK VINA RESULT:      -5.1     22.414     24.815
REMARK  2 active torsions:
REMARK  status: ('A' for Active; 'I' for Inactive)
REMARK    1  A    between atoms: O_1  and  C_6 
REMARK    2  A    between atoms: C_2  and  C_3 
ROOT
HETATM    1  C   UNK N   1     -30.680  39.737  -8.722  0.00  0.00    -0.022 A 
HETATM    2  C   UNK N   1     -30.852  40.287  -7.415  0.00  0.00     0.072 A 
HETATM    3  C   UNK N   1     -30.387  40.618  -9.787  0.00  0.00     0.011 A 
HETATM    4  C   UNK N   1     -30.421  42.522  -8.290  0.00  0.00    -0.059 A 
HETATM    5  C   UNK N   1     -30.710  41.667  -7.221  0.00  0.00     0.043 A 
HETATM    6  C   UNK N   1     -30.266  41.991  -9.573  0.00  0.00     0.007 A 
HETATM    7  C   UNK N   1     -30.280  43.996  -8.050  0.00  0.00     0.048 C 
ENDROOT
BRANCH   1   8
HETATM    8  C   UNK N   1     -30.790  38.239  -9.019  0.00  0.00     0.013 C 
HETATM    9  C   UNK N   1     -29.960  37.870 -10.257  0.00  0.00     0.015 C 
HETATM   10  C   UNK N   1     -32.254  37.820  -9.199  0.00  0.00     0.015 C 
ENDBRANCH   1   8
BRANCH   2  11
HETATM   11  O   UNK N   1     -31.154  39.537  -6.329  0.00  0.00    -0.360 OA
HETATM   12  H   UNK N   1     -32.019  39.473  -5.914  0.00  0.00     0.217 HD
ENDBRANCH   2  11
TORSDOF 2
ENDMDL
MODEL 9
REMARK VINA RESULT:      -5.0     22.249     24.599
REMARK  2 active torsions:
REMARK  status: ('A' for Active; 'I' for Inactive)
REMARK    1  A    between atoms: O_1  and  C_6 
REMARK    2  A    between atoms: C_2  and  C_3 
ROOT
HETATM    1  C   UNK N   1     -31.028  40.617  -9.776  0.00  0.00    -0.022 A 
HETATM    2  C   UNK N   1     -32.074  40.081 -10.588  0.00  0.00     0.072 A 
HETATM    3  C   UNK N   1     -29.954  39.771  -9.421  0.00  0.00     0.011 A 
HETATM    4  C   UNK N   1     -30.928  37.929 -10.655  0.00  0.00    -0.059 A 
HETATM    5  C   UNK N   1     -32.001  38.749 -11.019  0.00  0.00     0.043 A 
HETATM    6  C   UNK N   1     -29.910  38.445  -9.849  0.00  0.00     0.007 A 
HETATM    7  C   UNK N   1     -30.882  36.506 -11.130  0.00  0.00     0.048 C 
ENDROOT
BRANCH   1   8
HETATM    8  C   UNK N   1     -31.013  42.066  -9.283  0.00  0.00     0.013 C 
HETATM    9  C   UNK N   1     -30.244  42.965 -10.263  0.00  0.00     0.015 C 
HETATM   10  C   UNK N   1     -30.416  42.161  -7.873  0.00  0.00     0.015 C 
ENDBRANCH   1   8
BRANCH   2  11
HETATM   11  O   UNK N   1     -33.157  40.796 -10.970  0.00  0.00    -0.360 OA
HETATM   12  H   UNK N   1     -34.058  40.660 -10.660  0.00  0.00     0.217 HD
ENDBRANCH   2  11
TORSDOF 2
ENDMDL
