MODEL 1
REMARK VINA RESULT:      -4.6      0.000      0.000
REMARK  1 active torsions:
REMARK  status: ('A' for Active; 'I' for Inactive)
REMARK       I    between atoms: N_4  and  C_9 
REMARK    1  A    between atoms: C_5  and  C_9 
ROOT
HETATM    1  N   UNK N   1     -30.825  39.077  -7.634  0.00  0.00    -0.374 N 
ATOM      2  HN  UNK N   1     -31.051  38.295  -7.020  1.00  0.00     0.164 HD
HETATM    3  C   UNK N   1     -30.501  41.440  -7.945  0.00  0.00     0.047 A 
HETATM    4  C   UNK N   1     -30.211  41.190  -9.302  0.00  0.00     0.020 A 
HETATM    5  C   UNK N   1     -30.810  40.335  -7.122  0.00  0.00     0.104 A 
HETATM    6  C   UNK N   1     -30.235  39.884  -9.796  0.00  0.00     0.018 A 
HETATM    7  C   UNK N   1     -30.547  38.831  -8.939  0.00  0.00     0.087 A 
ENDROOT
BRANCH   3   8
HETATM    8  C   UNK N   1     -30.476  42.845  -7.419  0.00  0.00     0.250 C 
HETATM    9  O   UNK N   1     -29.996  43.732  -8.109  0.00  0.00    -0.268 OA
HETATM   10  N   UNK N   1     -30.972  43.167  -6.194  0.00  0.00    -0.366 N 
HETATM   11  H   UNK N   1     -31.387  42.471  -5.566  0.00  0.00     0.159 HD
HETATM   12  H   UNK N   1     -30.940  44.143  -5.866  0.00  0.00     0.159 HD
ENDBRANCH   3   8
TORSDOF 1
ENDMDL
MODEL 2
REMARK VINA RESULT:      -4.6     24.331     25.480
REMARK  1 active torsions:
REMARK  status: ('A' for Active; 'I' for Inactive)
REMARK       I    between atoms: N_4  and  C_9 
REMARK    1  A    between atoms: C_5  and  C_9 
ROOT
HETATM    1  N   UNK N   1     -16.030  20.560 -10.064  0.00  0.00    -0.374 N 
ATOM      2  HN  UNK N   1     -15.407  20.471 -10.867  1.00  0.00     0.164 HD
HETATM    3  C   UNK N   1     -16.871  19.680  -7.990  0.00  0.00     0.047 A 
HETATM    4  C   UNK N   1     -17.717  20.804  -7.892  0.00  0.00     0.020 A 
HETATM    5  C   UNK N   1     -16.022  19.589  -9.114  0.00  0.00     0.104 A 
HETATM    6  C   UNK N   1     -17.700  21.784  -8.887  0.00  0.00     0.018 A 
HETATM    7  C   UNK N   1     -16.842  21.643  -9.975  0.00  0.00     0.087 A 
ENDROOT
BRANCH   3   8
HETATM    8  C   UNK N   1     -16.895  18.628  -6.919  0.00  0.00     0.250 C 
HETATM    9  O   UNK N   1     -15.841  18.148  -6.531  0.00  0.00    -0.268 OA
HETATM   10  N   UNK N   1     -18.057  18.189  -6.364  0.00  0.00    -0.366 N 
HETATM   11  H   UNK N   1     -18.974  18.550  -6.645  0.00  0.00     0.159 HD
HETATM   12  H   UNK N   1     -18.036  17.467  -5.631  0.00  0.00     0.159 HD
ENDBRANCH   3   8
TORSDOF 1
ENDMDL
MODEL 3
REMARK VINA RESULT:      -4.5     23.893     25.211
REMARK  1 active torsions:
REMARK  status: ('A' for Active; 'I' for Inactive)
REMARK       I    between atoms: N_4  and  C_9 
REMARK    1  A    between atoms: C_5  and  C_9 
ROOT
HETATM    1  N   UNK N   1     -17.933  21.173  -6.935  0.00  0.00    -0.374 N 
ATOM      2  HN  UNK N   1     -18.596  21.843  -6.546  1.00  0.00     0.164 HD
HETATM    3  C   UNK N   1     -16.783  20.267  -8.843  0.00  0.00     0.047 A 
HETATM    4  C   UNK N   1     -16.136  19.357  -7.981  0.00  0.00     0.020 A 
HETATM    5  C   UNK N   1     -17.695  21.181  -8.272  0.00  0.00     0.104 A 
HETATM    6  C   UNK N   1     -16.404  19.376  -6.610  0.00  0.00     0.018 A 
HETATM    7  C   UNK N   1     -17.313  20.300  -6.102  0.00  0.00     0.087 A 
ENDROOT
BRANCH   3   8
HETATM    8  C   UNK N   1     -16.493  20.241 -10.315  0.00  0.00     0.250 C 
HETATM    9  O   UNK N   1     -17.356  20.606 -11.099  0.00  0.00    -0.268 OA
HETATM   10  N   UNK N   1     -15.297  19.823 -10.808  0.00  0.00    -0.366 N 
HETATM   11  H   UNK N   1     -14.531  19.504 -10.205  0.00  0.00     0.159 HD
HETATM   12  H   UNK N   1     -15.132  19.820 -11.825  0.00  0.00     0.159 HD
ENDBRANCH   3   8
TORSDOF 1
ENDMDL
MODEL 4
REMARK VINA RESULT:      -4.5     23.467     24.864
REMARK  1 active torsions:
REMARK  status: ('A' for Active; 'I' for Inactive)
REMARK       I    between atoms: N_4  and  C_9 
REMARK    1  A    between atoms: C_5  and  C_9 
ROOT
HETATM    1  N   UNK N   1     -15.286  19.300  -9.589  0.00  0.00    -0.374 N 
ATOM      2  HN  UNK N   1     -14.646  19.018 -10.331  1.00  0.00     0.164 HD
HETATM    3  C   UNK N   1     -16.997  20.785  -8.782  0.00  0.00     0.047 A 
HETATM    4  C   UNK N   1     -17.018  20.056  -7.576  0.00  0.00     0.020 A 
HETATM    5  C   UNK N   1     -16.099  20.369  -9.789  0.00  0.00     0.104 A 
HETATM    6  C   UNK N   1     -16.169  18.960  -7.402  0.00  0.00     0.018 A 
HETATM    7  C   UNK N   1     -15.302  18.594  -8.430  0.00  0.00     0.087 A 
ENDROOT
BRANCH   3   8
HETATM    8  C   UNK N   1     -17.910  21.963  -8.963  0.00  0.00     0.250 C 
HETATM    9  O   UNK N   1     -19.022  21.938  -8.458  0.00  0.00    -0.268 OA
HETATM   10  N   UNK N   1     -17.538  23.063  -9.672  0.00  0.00    -0.366 N 
HETATM   11  H   UNK N   1     -16.620  23.147 -10.120  0.00  0.00     0.159 HD
HETATM   12  H   UNK N   1     -18.190  23.853  -9.774  0.00  0.00     0.159 HD
ENDBRANCH   3   8
TORSDOF 1
ENDMDL
MODEL 5
REMARK VINA RESULT:      -4.5     24.002     25.282
REMARK  1 active torsions:
REMARK  status: ('A' for Active; 'I' for Inactive)
REMARK       I    between atoms: N_4  and  C_9 
REMARK    1  A    between atoms: C_5  and  C_9 
ROOT
HETATM    1  N   UNK N   1     -17.825  21.933  -8.503  0.00  0.00    -0.374 N 
ATOM      2  HN  UNK N   1     -18.349  22.788  -8.317  1.00  0.00     0.164 HD
HETATM    3  C   UNK N   1     -17.097  19.755  -7.790  0.00  0.00     0.047 A 
HETATM    4  C   UNK N   1     -16.406  19.620  -9.012  0.00  0.00     0.020 A 
HETATM    5  C   UNK N   1     -17.812  20.951  -7.565  0.00  0.00     0.104 A 
HETATM    6  C   UNK N   1     -16.441  20.649  -9.956  0.00  0.00     0.018 A 
HETATM    7  C   UNK N   1     -17.163  21.808  -9.681  0.00  0.00     0.087 A 
ENDROOT
BRANCH   3   8
HETATM    8  C   UNK N   1     -17.054  18.646  -6.779  0.00  0.00     0.250 C 
HETATM    9  O   UNK N   1     -15.972  18.192  -6.437  0.00  0.00    -0.268 OA
HETATM   10  N   UNK N   1     -18.184  18.128  -6.228  0.00  0.00    -0.366 N 
HETATM   11  H   UNK N   1     -19.122  18.463  -6.471  0.00  0.00     0.159 HD
HETATM   12  H   UNK N   1     -18.117  17.369  -5.535  0.00  0.00     0.159 HD
ENDBRANCH   3   8
TORSDOF 1
ENDMDL
MODEL 6
REMARK VINA RESULT:      -4.2      2.304      3.896
REMARK  1 active torsions:
REMARK  status: ('A' for Active; 'I' for Inactive)
REMARK       I    between atoms: N_4  and  C_9 
REMARK    1  A    between atoms: C_5  and  C_9 
ROOT
HETATM    1  N   UNK N   1     -29.957  43.580 -10.145  0.00  0.00    -0.374 N 
ATOM      2  HN  UNK N   1     -29.735  43.884 -11.093  1.00  0.00     0.164 HD
HETATM    3  C   UNK N   1     -30.309  41.796  -8.572  0.00  0.00     0.047 A 
HETATM    4  C   UNK N   1     -30.556  42.763  -7.577  0.00  0.00     0.020 A 
HETATM    5  C   UNK N   1     -30.006  42.250  -9.874  0.00  0.00     0.104 A 
HETATM    6  C   UNK N   1     -30.496  44.124  -7.890  0.00  0.00     0.018 A 
HETATM    7  C   UNK N   1     -30.193  44.516  -9.191  0.00  0.00     0.087 A 
ENDROOT
BRANCH   3   8
HETATM    8  C   UNK N   1     -30.376  40.335  -8.231  0.00  0.00     0.250 C 
HETATM    9  O   UNK N   1     -29.974  39.515  -9.042  0.00  0.00    -0.268 OA
HETATM   10  N   UNK N   1     -30.872  39.893  -7.044  0.00  0.00    -0.366 N 
HETATM   11  H   UNK N   1     -31.226  40.529  -6.322  0.00  0.00     0.159 HD
HETATM   12  H   UNK N   1     -30.901  38.884  -6.843  0.00  0.00     0.159 HD
ENDBRANCH   3   8
TORSDOF 1
ENDMDL
MODEL 7
REMARK VINA RESULT:      -4.1     16.218     16.674
REMARK  1 active torsions:
REMARK  status: ('A' for Active; 'I' for Inactive)
REMARK       I    between atoms: N_4  and  C_9 
REMARK    1  A    between atoms: C_5  and  C_9 
ROOT
HETATM    1  N   UNK N   1     -37.423  25.728  -9.664  0.00  0.00    -0.374 N 
ATOM      2  HN  UNK N   1     -37.095  25.219  -8.843  1.00  0.00     0.164 HD
HETATM    3  C   UNK N   1     -36.985  26.645 -11.843  0.00  0.00     0.047 A 
HETATM    4  C   UNK N   1     -38.317  27.106 -11.883  0.00  0.00     0.020 A 
HETATM    5  C   UNK N   1     -36.563  25.945 -10.692  0.00  0.00     0.104 A 
HETATM    6  C   UNK N   1     -39.175  26.866 -10.808  0.00  0.00     0.018 A 
HETATM    7  C   UNK N   1     -38.706  26.169  -9.697  0.00  0.00     0.087 A 
ENDROOT
BRANCH   3   8
HETATM    8  C   UNK N   1     -36.065  26.908 -13.000  0.00  0.00     0.250 C 
HETATM    9  O   UNK N   1     -35.573  28.018 -13.131  0.00  0.00    -0.268 OA
HETATM   10  N   UNK N   1     -35.761  25.946 -13.913  0.00  0.00    -0.366 N 
HETATM   11  H   UNK N   1     -36.140  24.995 -13.861  0.00  0.00     0.159 HD
HETATM   12  H   UNK N   1     -35.125  26.161 -14.694  0.00  0.00     0.159 HD
ENDBRANCH   3   8
TORSDOF 1
ENDMDL
MODEL 8
REMARK VINA RESULT:      -4.1     42.797     44.472
REMARK  1 active torsions:
REMARK  status: ('A' for Active; 'I' for Inactive)
REMARK       I    between atoms: N_4  and  C_9 
REMARK    1  A    between atoms: C_5  and  C_9 
ROOT
HETATM    1  N   UNK N   1     -37.965  -4.679  -7.684  0.00  0.00    -0.374 N 
ATOM      2  HN  UNK N   1     -38.753  -5.324  -7.740  1.00  0.00     0.164 HD
HETATM    3  C   UNK N   1     -37.085  -2.534  -7.044  0.00  0.00     0.047 A 
HETATM    4  C   UNK N   1     -35.827  -2.938  -7.536  0.00  0.00     0.020 A 
HETATM    5  C   UNK N   1     -38.155  -3.451  -7.136  0.00  0.00     0.104 A 
HETATM    6  C   UNK N   1     -35.666  -4.209  -8.093  0.00  0.00     0.018 A 
HETATM    7  C   UNK N   1     -36.757  -5.073  -8.159  0.00  0.00     0.087 A 
ENDROOT
BRANCH   3   8
HETATM    8  C   UNK N   1     -37.253  -1.167  -6.447  0.00  0.00     0.250 C 
HETATM    9  O   UNK N   1     -37.136  -1.024  -5.240  0.00  0.00    -0.268 OA
HETATM   10  N   UNK N   1     -37.532  -0.076  -7.211  0.00  0.00    -0.366 N 
HETATM   11  H   UNK N   1     -37.643  -0.127  -8.228  0.00  0.00     0.159 HD
HETATM   12  H   UNK N   1     -37.639   0.847  -6.767  0.00  0.00     0.159 HD
ENDBRANCH   3   8
TORSDOF 1
ENDMDL
MODEL 9
REMARK VINA RESULT:      -4.1     42.573     43.889
REMARK  1 active torsions:
REMARK  status: ('A' for Active; 'I' for Inactive)
REMARK       I    between atoms: N_4  and  C_9 
REMARK    1  A    between atoms: C_5  and  C_9 
ROOT
HETATM    1  N   UNK N   1     -37.868  -0.228  -5.883  0.00  0.00    -0.374 N 
ATOM      2  HN  UNK N   1     -38.061   0.472  -6.598  1.00  0.00     0.164 HD
HETATM    3  C   UNK N   1     -36.693  -2.209  -5.188  0.00  0.00     0.047 A 
HETATM    4  C   UNK N   1     -37.347  -2.121  -3.941  0.00  0.00     0.020 A 
HETATM    5  C   UNK N   1     -36.984  -1.223  -6.156  0.00  0.00     0.104 A 
HETATM    6  C   UNK N   1     -38.250  -1.085  -3.693  0.00  0.00     0.018 A 
HETATM    7  C   UNK N   1     -38.499  -0.140  -4.685  0.00  0.00     0.087 A 
ENDROOT
BRANCH   3   8
HETATM    8  C   UNK N   1     -35.725  -3.326  -5.450  0.00  0.00     0.250 C 
HETATM    9  O   UNK N   1     -35.326  -3.514  -6.589  0.00  0.00    -0.268 OA
HETATM   10  N   UNK N   1     -35.276  -4.139  -4.457  0.00  0.00    -0.366 N 
HETATM   11  H   UNK N   1     -35.572  -4.036  -3.481  0.00  0.00     0.159 HD
HETATM   12  H   UNK N   1     -34.611  -4.895  -4.674  0.00  0.00     0.159 HD
ENDBRANCH   3   8
TORSDOF 1
ENDMDL
